Circuit: * C:\users\karabila\My Documents\Fahrradprojekt\ba_ranz\Schematics\Beaglebone_Verhaltensmodell.asc

Error on line 8 : v7 i2c2_scl 0 v
	 Unknown parameter "v"
Error on line 9 : v9 i2c2_sda 0 v
	 Unknown parameter "v"
Limiting rise time of source v11 to 0.00151515
Limiting fall time of source v11 to 0.00151515
Limiting rise time of source v10 to 0.00151515
Limiting fall time of source v10 to 0.00151515
Limiting rise time of source v8 to 7.5e-005
Limiting fall time of source v8 to 7.5e-005
Limiting rise time of source v5 to 0.00151515
Limiting fall time of source v5 to 0.00151515
WARNING: Less than two connections to node VDD_5V_1.  This node is used by V1.
WARNING: Less than two connections to node VDD_5V_2.  This node is used by V2.
WARNING: Less than two connections to node VDD_3.3V_2.  This node is used by V3.
WARNING: Less than two connections to node VDD_3.3V_1.  This node is used by V4.
WARNING: Less than two connections to node EHRPWM1B.  This node is used by V8.
WARNING: Less than two connections to node I2C2_SCL.  This node is used by V7.
WARNING: Less than two connections to node I2C2_SDA.  This node is used by V9.
WARNING: Less than two connections to node UART4_TXD.  This node is used by V11.
V9: Missing value, assumed 0V @ DC
V7: Missing value, assumed 0V @ DC
Direct Newton iteration for .op point succeeded.

Date: Sat Mar 26 01:23:10 2022
Total elapsed time: 4.161 seconds.

tnom = 27
temp = 27
method = modified trap
totiter = 1074353
traniter = 1074350
tranpoints = 537176
accept = 421341
rejected = 115835
matrix size = 20
fillins = 0
solver = Normal
Matrix Compiler1: 306 bytes object code size  0.3/0.2/[0.2]
Matrix Compiler2: 852 bytes object code size  0.2/0.4/[0.2]

