Circuit: * Z:\home\karabila\Fahrradprojekt\ba_ranz\Schematics\BeagleboneTestbench.asc

Error on line 13 : v:x1:7 n012«:i2c2_scl» n001«:5v_input» v
	 Unknown parameter "v"
Error on line 14 : v:x1:9 n013«:i2c2_sda» n001«:5v_input» v
	 Unknown parameter "v"
Limiting rise time of source v:x1:11 to 0.00151515
Limiting fall time of source v:x1:11 to 0.00151515
Limiting rise time of source v:x1:10 to 0.00151515
Limiting fall time of source v:x1:10 to 0.00151515
Limiting rise time of source v:x1:8 to 7.5e-005
Limiting fall time of source v:x1:8 to 7.5e-005
Limiting rise time of source v:x1:5 to 0.00151515
Limiting fall time of source v:x1:5 to 0.00151515
WARNING: Node N004 is floating.
WARNING: Node NC_15 is floating.

WARNING: Less than two connections to node N002.  This node is used by V1.
WARNING: Less than two connections to node N006.  This node is used by V:X1:1.
WARNING: Less than two connections to node N004.  This node is used by V:X1:1.
WARNING: Less than two connections to node N003.  This node is used by V:X1:2.
WARNING: Less than two connections to node NC_79.  This node is used by V:X1:3.
WARNING: Less than two connections to node NC_15.  This node is used by V:X1:3.
WARNING: Less than two connections to node N005.  This node is used by V:X1:4.
WARNING: Less than two connections to node N012.  This node is used by V:X1:7.
WARNING: Less than two connections to node N013.  This node is used by V:X1:9.
WARNING: Less than two connections to node N011.  This node is used by V:X1:11.
x1:v9: Missing value, assumed 0V @ DC
x1:v7: Missing value, assumed 0V @ DC
Direct Newton iteration failed to find .op point.  (Use ".option noopiter" to skip.)
Starting Gmin stepping
Gmin = 10
Gmin = 1.07374
Gmin = 0.115292
Gmin = 0.0123794
Gmin = 0.00132923
Gmin = 0.000142725
Gmin = 1.5325e-005
Gmin = 1.6455e-006
Gmin = 1.76685e-007
Gmin = 1.89714e-008
Gmin = 2.03704e-009
Gmin = 2.18725e-010
Gmin = 2.34854e-011
Gmin = 2.52173e-012
Gmin = 2.70769e-013
Gmin = 0
Gmin stepping succeeded in finding the operating point.

Ignoring empty pin current: Ix(x1:ain0)
Ignoring empty pin current: Ix(x1:ain1)
Ignoring empty pin current: Ix(x1:ain2)
Ignoring empty pin current: Ix(x1:ain3)
Ignoring empty pin current: Ix(x1:ain4)
Ignoring empty pin current: Ix(x1:ain5)
Ignoring empty pin current: Ix(x1:ain6)
Ignoring empty pin current: Ix(x1:lcd_data0)
Ignoring empty pin current: Ix(x1:lcd_data1)
Ignoring empty pin current: Ix(x1:lcd_data2)
Ignoring empty pin current: Ix(x1:lcd_data3)
Ignoring empty pin current: Ix(x1:lcd_data4)
Ignoring empty pin current: Ix(x1:lcd_data5)
Ignoring empty pin current: Ix(x1:lcd_data6)
Ignoring empty pin current: Ix(x1:dgnd_3)
Ignoring empty pin current: Ix(x1:dgnd_5)
Ignoring empty pin current: Ix(x1:dgnd_6)
Ignoring empty pin current: Ix(x1:dgnd_7)
Ignoring empty pin current: Ix(x1:dgnd_8)
Ignoring empty pin current: Ix(x1:ecapwm0)
Ignoring empty pin current: Ix(x1:ehrpwm1a)
Ignoring empty pin current: Ix(x1:ehrpwm2a)
Ignoring empty pin current: Ix(x1:ehrpwm2b)
Ignoring empty pin current: Ix(x1:gnd_adcc)
Ignoring empty pin current: Ix(x1:gpio_112)
Ignoring empty pin current: Ix(x1:gpio_115)
Ignoring empty pin current: Ix(x1:gpio_117)
Ignoring empty pin current: Ix(x1:gpio_20)
Ignoring empty pin current: Ix(x1:gpio_26)
Ignoring empty pin current: Ix(x1:gpio_27)
Ignoring empty pin current: Ix(x1:gpio_44)
Ignoring empty pin current: Ix(x1:gpio_45)
Ignoring empty pin current: Ix(x1:gpio_46)
Ignoring empty pin current: Ix(x1:gpio_47)
Ignoring empty pin current: Ix(x1:gpio_48)
Ignoring empty pin current: Ix(x1:gpio_49)
Ignoring empty pin current: Ix(x1:gpio_60)
Ignoring empty pin current: Ix(x1:gpio_61)
Ignoring empty pin current: Ix(x1:gpio_65)
Ignoring empty pin current: Ix(x1:gpio_66)
Ignoring empty pin current: Ix(x1:gpio_67)
Ignoring empty pin current: Ix(x1:gpio_68)
Ignoring empty pin current: Ix(x1:gpio_69)
Ignoring empty pin current: Ix(x1:lcd_ac_bias)
Ignoring empty pin current: Ix(x1:lcd_hsync)
Ignoring empty pin current: Ix(x1:lcd_pclk)
Ignoring empty pin current: Ix(x1:lcd_vsync)
Ignoring empty pin current: Ix(x1:mmc1_clk)
Ignoring empty pin current: Ix(x1:mmc1_cmd)
Ignoring empty pin current: Ix(x1:mmc1_dat0)
Ignoring empty pin current: Ix(x1:mmc1_dat1)
Ignoring empty pin current: Ix(x1:mmc1_dat2)
Ignoring empty pin current: Ix(x1:mmc1_dat3)
Ignoring empty pin current: Ix(x1:mmc1_dat4)
Ignoring empty pin current: Ix(x1:mmc1_dat5)
Ignoring empty pin current: Ix(x1:mmc1_dat6)
Ignoring empty pin current: Ix(x1:mmc1_dat7)
Ignoring empty pin current: Ix(x1:pwr_but)
Ignoring empty pin current: Ix(x1:sp11_cso)
Ignoring empty pin current: Ix(x1:lcd_data10)
Ignoring empty pin current: Ix(x1:lcd_data11)
Ignoring empty pin current: Ix(x1:lcd_data12)
Ignoring empty pin current: Ix(x1:lcd_data13)
Ignoring empty pin current: Ix(x1:lcd_data14)
Ignoring empty pin current: Ix(x1:lcd_data15)
Ignoring empty pin current: Ix(x1:lcd_data7)
Ignoring empty pin current: Ix(x1:lcd_data8)
Ignoring empty pin current: Ix(x1:lcd_data9)
Ignoring empty pin current: Ix(x1:sp11_do)
Ignoring empty pin current: Ix(x1:sp11_sclk)
Ignoring empty pin current: Ix(x1:spio_cso)
Ignoring empty pin current: Ix(x1:spio_d1)
Ignoring empty pin current: Ix(x1:spio_do)
Ignoring empty pin current: Ix(x1:spio_slck)
Ignoring empty pin current: Ix(x1:sys_5v_1)
Ignoring empty pin current: Ix(x1:sys_5v_2)
Ignoring empty pin current: Ix(x1:sys_reset)
Ignoring empty pin current: Ix(x1:uart1_rxd)
Ignoring empty pin current: Ix(x1:uart4_rxd)
Ignoring empty pin current: Ix(x1:vdd_adc)
Ignoring empty pin current: Ix(x1:uart1_txd)
Ignoring empty pin current: Ix(x1:gnd)
Ignoring empty pin current: Ix(x1:ain0)
Ignoring empty pin current: Ix(x1:ain1)
Ignoring empty pin current: Ix(x1:ain2)
Ignoring empty pin current: Ix(x1:ain3)
Ignoring empty pin current: Ix(x1:ain4)
Ignoring empty pin current: Ix(x1:ain5)
Ignoring empty pin current: Ix(x1:ain6)
Ignoring empty pin current: Ix(x1:lcd_data0)
Ignoring empty pin current: Ix(x1:lcd_data1)
Ignoring empty pin current: Ix(x1:lcd_data2)
Ignoring empty pin current: Ix(x1:lcd_data3)
Ignoring empty pin current: Ix(x1:lcd_data4)
Ignoring empty pin current: Ix(x1:lcd_data5)
Ignoring empty pin current: Ix(x1:lcd_data6)
Ignoring empty pin current: Ix(x1:dgnd_3)
Ignoring empty pin current: Ix(x1:dgnd_5)
Ignoring empty pin current: Ix(x1:dgnd_6)
Ignoring empty pin current: Ix(x1:dgnd_7)
Ignoring empty pin current: Ix(x1:dgnd_8)
Ignoring empty pin current: Ix(x1:ecapwm0)
Ignoring empty pin current: Ix(x1:ehrpwm1a)
Ignoring empty pin current: Ix(x1:ehrpwm2a)
Ignoring empty pin current: Ix(x1:ehrpwm2b)
Ignoring empty pin current: Ix(x1:gnd_adcc)
Ignoring empty pin current: Ix(x1:gpio_112)
Ignoring empty pin current: Ix(x1:gpio_115)
Ignoring empty pin current: Ix(x1:gpio_117)
Ignoring empty pin current: Ix(x1:gpio_20)
Ignoring empty pin current: Ix(x1:gpio_26)
Ignoring empty pin current: Ix(x1:gpio_27)
Ignoring empty pin current: Ix(x1:gpio_44)
Ignoring empty pin current: Ix(x1:gpio_45)
Ignoring empty pin current: Ix(x1:gpio_46)
Ignoring empty pin current: Ix(x1:gpio_47)
Ignoring empty pin current: Ix(x1:gpio_48)
Ignoring empty pin current: Ix(x1:gpio_49)
Ignoring empty pin current: Ix(x1:gpio_60)
Ignoring empty pin current: Ix(x1:gpio_61)
Ignoring empty pin current: Ix(x1:gpio_65)
Ignoring empty pin current: Ix(x1:gpio_66)
Ignoring empty pin current: Ix(x1:gpio_67)
Ignoring empty pin current: Ix(x1:gpio_68)
Ignoring empty pin current: Ix(x1:gpio_69)
Ignoring empty pin current: Ix(x1:lcd_ac_bias)
Ignoring empty pin current: Ix(x1:lcd_hsync)
Ignoring empty pin current: Ix(x1:lcd_pclk)
Ignoring empty pin current: Ix(x1:lcd_vsync)
Ignoring empty pin current: Ix(x1:mmc1_clk)
Ignoring empty pin current: Ix(x1:mmc1_cmd)
Ignoring empty pin current: Ix(x1:mmc1_dat0)
Ignoring empty pin current: Ix(x1:mmc1_dat1)
Ignoring empty pin current: Ix(x1:mmc1_dat2)
Ignoring empty pin current: Ix(x1:mmc1_dat3)
Ignoring empty pin current: Ix(x1:mmc1_dat4)
Ignoring empty pin current: Ix(x1:mmc1_dat5)
Ignoring empty pin current: Ix(x1:mmc1_dat6)
Ignoring empty pin current: Ix(x1:mmc1_dat7)
Ignoring empty pin current: Ix(x1:pwr_but)
Ignoring empty pin current: Ix(x1:sp11_cso)
Ignoring empty pin current: Ix(x1:lcd_data10)
Ignoring empty pin current: Ix(x1:lcd_data11)
Ignoring empty pin current: Ix(x1:lcd_data12)
Ignoring empty pin current: Ix(x1:lcd_data13)
Ignoring empty pin current: Ix(x1:lcd_data14)
Ignoring empty pin current: Ix(x1:lcd_data15)
Ignoring empty pin current: Ix(x1:lcd_data7)
Ignoring empty pin current: Ix(x1:lcd_data8)
Ignoring empty pin current: Ix(x1:lcd_data9)
Ignoring empty pin current: Ix(x1:sp11_do)
Ignoring empty pin current: Ix(x1:sp11_sclk)
Ignoring empty pin current: Ix(x1:spio_cso)
Ignoring empty pin current: Ix(x1:spio_d1)
Ignoring empty pin current: Ix(x1:spio_do)
Ignoring empty pin current: Ix(x1:spio_slck)
Ignoring empty pin current: Ix(x1:sys_5v_1)
Ignoring empty pin current: Ix(x1:sys_5v_2)
Ignoring empty pin current: Ix(x1:sys_reset)
Ignoring empty pin current: Ix(x1:uart1_rxd)
Ignoring empty pin current: Ix(x1:uart4_rxd)
Ignoring empty pin current: Ix(x1:vdd_adc)
Ignoring empty pin current: Ix(x1:uart1_txd)
Ignoring empty pin current: Ix(x1:gnd)
Changing Tseed to 1e-008
Changing Tseed to 1e-010
Changing Tseed to 1e-007
Changing Tseed to 1e-011
Changing Tseed to 1e-006
Changing Tseed to 1e-012
Changing Tseed to 1e-005
Heightened Def Con from 5.00008 +++++++to 5.00008
Heightened Def Con from 5.00008 +++++++++to 5.00008
Heightened Def Con from 5.00008 +++++++++++++to 5.00008
Heightened Def Con from 5.00008 +++++++++++++to 5.00008
Heightened Def Con from 5.00008 ++++++++++++++++to 5.00008
Heightened Def Con from 5.00008 ++++++++++++++to 5.00008
Heightened Def Con from 5.00008 ++++++++++++++to 5.00008
Heightened Def Con from 5.00008 ++++++++++++++to 5.00008
Heightened Def Con from 5.00008 +++++++++++++++to 5.00008
Heightened Def Con from 5.00008 ++++++++++++++to 5.00008
Heightened Def Con from 5.00008 ++++++++++to 5.00008
Heightened Def Con from 5.00008 ++to 5.00008
Heightened Def Con from 5.00008 to 5.00008
Heightened Def Con from 5.00008 ++++++++to 5.00008
Heightened Def Con from 5.00008 ++++++++++++to 5.00008
Heightened Def Con from 5.00008 ++++++++to 5.00008
Heightened Def Con from 5.00008 +++++++++++to 5.00008
Heightened Def Con from 5.00008 ++++++++++++++to 5.00008
Heightened Def Con from 5.00008 +++++++++++++to 5.00008
Heightened Def Con from 5.00008 ++++++++++++++to 5.00008
Heightened Def Con from 5.00008 +++++++++++++to 5.00008
Heightened Def Con from 5.00008 ++++++++++++++to 5.00008
Heightened Def Con from 5.00008 +++++++++++++to 5.00008
Heightened Def Con from 5.00008 ++++++++++++++to 5.00008
Heightened Def Con from 5.00008 ++++++++++to 5.00008
Heightened Def Con from 5.00008 to 5.00008
Heightened Def Con from 5.00008 +to 5.00008
Heightened Def Con from 5.00008 ++++++++++to 5.00008
Heightened Def Con from 5.00008 ++++++++to 5.00008
Heightened Def Con from 5.00008 +++++++++++++to 5.00008
Heightened Def Con from 5.00008 ++++++++++to 5.00008
Heightened Def Con from 5.00008 +++++++++to 5.00008
Heightened Def Con from 5.00008 +++++++++++to 5.00008
Heightened Def Con from 5.00008 +++++++++++++++to 5.00008
Heightened Def Con from 5.00008 +++++++++to 5.00008
Heightened Def Con from 5.00008 ++++++++to 5.00008
Heightened Def Con from 5.00008 ++++to 5.00008
Heightened Def Con from 5.00008 +++to 5.00008
Heightened Def Con from 5.00008 +to 5.00008
Heightened Def Con from 5.00008 ++++++to 5.00008
Heightened Def Con from 5.00008 +to 5.00008
Heightened Def Con from 5.00008 ++to 5.00008
Heightened Def Con from 5.00008 to 5.00008
Heightened Def Con from 5.00008 +to 5.00008
Heightened Def Con from 5.00008 to 5.00008
Heightened Def Con from 5.00009 +++++++++++to 5.00009
Heightened Def Con from 5.00009 ++++++++++++++to 5.00009
Heightened Def Con from 5.00009 ++++++++++to 5.00009
Heightened Def Con from 5.00009 ++++++++++to 5.00009
Heightened Def Con from 5.00009 ++++++++++++++to 5.00009
Heightened Def Con from 5.00009 +++++++++++++++to 5.00009
Heightened Def Con from 5.00009 +++++++++++++to 5.00009
Heightened Def Con from 5.00009 ++++++++++++to 5.00009
Heightened Def Con from 5.00009 ++++++++++to 5.00009
Heightened Def Con from 5.00009 +++++++++to 5.00009
Heightened Def Con from 5.00009 ++++++to 5.00009
Heightened Def Con from 5.00009 +to 5.00009
Heightened Def Con from 5.00009 to 5.00009
Heightened Def Con from 5.00009 +++++++++++to 5.00009
Heightened Def Con from 5.00009 ++++++++++to 5.00009
Heightened Def Con from 5.00009 +++++++++++++++to 5.00009
Heightened Def Con from 5.00009 ++++++++++++to 5.00009
Heightened Def Con from 5.00009 ++++++++++++to 5.00009
Heightened Def Con from 5.00009 ++++++++++++to 5.00009
Heightened Def Con from 5.00009 ++++++++++++to 5.00009
Heightened Def Con from 5.00009 ++++++++++++to 5.00009
Heightened Def Con from 5.00009 ++++++++++++to 5.00009
Heightened Def Con from 5.00009 +++++++++to 5.00009
Heightened Def Con from 5.00009 to 5.00009
Heightened Def Con from 5.00009 to 5.00009
Heightened Def Con from 5.00009 +to 5.00009
Heightened Def Con from 5.0034 +++++++++++++++to 5.0034
Heightened Def Con from 5.0034 ++++++++++++to 5.0034
Heightened Def Con from 5.0034 +++++++++++to 5.0034
Heightened Def Con from 5.0034 +++++++++to 5.0034
Heightened Def Con from 5.0034 +++++++++++++to 5.0034
Heightened Def Con from 5.0034 ++++++++++++++to 5.0034
Heightened Def Con from 5.0034 ++++++++++++to 5.0034
Heightened Def Con from 5.0034 ++++++++++++++to 5.0034
Heightened Def Con from 5.0034 ++++++++++++to 5.0034
Heightened Def Con from 5.0034 ++++++++++++to 5.0034
Heightened Def Con from 5.0034 +++++++++to 5.0034
Heightened Def Con from 5.0034 +++++++to 5.0034
Heightened Def Con from 5.0034 +++++to 5.0034
Heightened Def Con from 5.00508 +++++++++to 5.00508
Heightened Def Con from 5.00508 +++++++++++to 5.00508
Heightened Def Con from 5.00508 ++++++++++++to 5.00508
Heightened Def Con from 5.00508 +++++++++to 5.00508
Heightened Def Con from 5.00508 ++++++++++to 5.00508
Heightened Def Con from 5.00508 +++++++++++to 5.00508
Heightened Def Con from 5.00508 ++++++++++++++to 5.00508
Heightened Def Con from 5.00508 ++++++++++++++to 5.00508
Heightened Def Con from 5.00508 ++++++++++++to 5.00508
Heightened Def Con from 5.00508 ++++++++++++to 5.00508
Heightened Def Con from 5.00508 ++++++++++++++to 5.00508
Heightened Def Con from 5.00508 +++++++++to 5.00508
Heightened Def Con from 5.00508 +++++++++++to 5.00508
Heightened Def Con from 5.00508 +++++++++++++to 5.00508
Heightened Def Con from 5.00508 ++++++++++++++to 5.00508
Heightened Def Con from 5.00508 ++++++++++++++to 5.00508
Heightened Def Con from 5.00508 ++++++++++++++to 5.00508
Heightened Def Con from 5.00508 +++++++++to 5.00508
Heightened Def Con from 5.00508 to 5.00508
Heightened Def Con from 5.00508 to 5.00508
Heightened Def Con from 5.00508 to 5.00508
Heightened Def Con from 5.00508 to 5.00508
Heightened Def Con from 5.00508 to 5.00508
Heightened Def Con from 5.00508 to 5.00508
Heightened Def Con from 5.00509 ++++++++to 5.00509
Heightened Def Con from 5.00509 +++++++++++++++to 5.00509
Heightened Def Con from 5.00509 +++++++++++++to 5.00509
Heightened Def Con from 5.00509 +++++++++++++to 5.00509
Heightened Def Con from 5.00509 +++++++++++++to 5.00509
Heightened Def Con from 5.00509 ++++++++++++to 5.00509
Heightened Def Con from 5.00509 +++++++++++++to 5.00509
Heightened Def Con from 5.00509 +++++++++++to 5.00509
Heightened Def Con from 5.00509 +++++++++++to 5.00509
Heightened Def Con from 5.00509 +++++++++++++to 5.00509
Heightened Def Con from 5.00509 ++++++++++++++to 5.00509
Heightened Def Con from 5.00509 +++++++++++++++to 5.00509
Heightened Def Con from 5.00509 ++++++++++++++to 5.00509
Heightened Def Con from 5.00509 ++++++++++to 5.00509
Heightened Def Con from 5.00509 +++++++++++++to 5.00509
Heightened Def Con from 5.00509 ++++++++++++++to 5.00509
Heightened Def Con from 5.00509 ++++++++++++to 5.00509
Heightened Def Con from 5.00509 ++++++++++++to 5.00509
Heightened Def Con from 5.00509 ++++++++++++to 5.00509
Heightened Def Con from 5.00509 ++++++++++++++to 5.00509
Heightened Def Con from 5.00509 ++++++++++to 5.00509
Heightened Def Con from 5.00509 +to 5.00509
Heightened Def Con from 5.00509 to 5.00509
Heightened Def Con from 5.00509 +++++++++++++to 5.00509
Heightened Def Con from 5.00509 ++++++++to 5.00509
Heightened Def Con from 5.00509 ++++++++to 5.00509
Heightened Def Con from 5.00509 ++++++++++++to 5.00509
Heightened Def Con from 5.00509 +++++++++to 5.00509
Heightened Def Con from 5.00509 ++++++to 5.00509
Heightened Def Con from 5.00509 ++to 5.00509
Heightened Def Con from 5.00509 ++++++++++++to 5.00509
Heightened Def Con from 5.00509 +++++++++++++to 5.00509
Heightened Def Con from 5.00509 ++++++++++to 5.00509
Heightened Def Con from 5.00509 +++++++++to 5.00509
Heightened Def Con from 5.00509 +++++++++++to 5.00509
Heightened Def Con from 5.00509 +++++++++++++to 5.00509
Heightened Def Con from 5.00509 ++++++++++to 5.00509
Heightened Def Con from 5.00509 +++++++++++++++to 5.00509
Heightened Def Con from 5.00509 ++++++++++to 5.00509
Heightened Def Con from 5.00509 ++++++++++to 5.00509
Heightened Def Con from 5.00509 +++++++++++to 5.00509
Heightened Def Con from 5.00509 +++++++++++++to 5.00509
Heightened Def Con from 5.00509 +++++++++++to 5.00509
Heightened Def Con from 5.00509 ++++++++++++++to 5.00509
Heightened Def Con from 5.00509 +++++++++++to 5.00509
Heightened Def Con from 5.00509 +++++++++++++to 5.00509
Heightened Def Con from 5.00509 +++++++++to 5.00509
Heightened Def Con from 5.00509 +++++++++++++++to 5.00509
Heightened Def Con from 5.00509 ++++++++++++to 5.00509
Heightened Def Con from 5.00509 ++++++++++++++to 5.00509
Heightened Def Con from 5.00509 +++++++++++++to 5.00509
Heightened Def Con from 5.00509 +++++++++++to 5.00509
Heightened Def Con from 5.00509 +++++++++++++++to 5.00509
Heightened Def Con from 5.00509 ++++++++++to 5.00509
Heightened Def Con from 5.00509 +++++++++to 5.00509
Heightened Def Con from 5.00509 to 5.00509
Heightened Def Con from 5.00509 ++to 5.00509
Heightened Def Con from 5.0051 ++++++++++++to 5.0051
Heightened Def Con from 5.0051 ++++++++++++to 5.0051
Heightened Def Con from 5.0051 ++++++++++++to 5.0051
Heightened Def Con from 5.0051 +++++++to 5.0051
Heightened Def Con from 5.0051 +++++++++++++to 5.0051
Heightened Def Con from 5.0051 +++++++++++to 5.0051
Heightened Def Con from 5.0051 ++++++++++++to 5.0051
Heightened Def Con from 5.0051 ++++++++++++++to 5.0051
Heightened Def Con from 5.0051 ++++++++to 5.0051
Heightened Def Con from 5.0051 ++++++++++++to 5.0051
Heightened Def Con from 5.0051 ++++++++to 5.0051
Heightened Def Con from 5.0051 +++++++to 5.0051
Heightened Def Con from 5.0051 +++++to 5.0051
Heightened Def Con from 5.00993 ++++++++++++++to 5.00993
Heightened Def Con from 5.00993 +++++++++to 5.00993
Heightened Def Con from 5.00993 +++++++to 5.00993
Heightened Def Con from 5.00993 ++++++++to 5.00993
Heightened Def Con from 5.00993 +++++++++to 5.00993
Heightened Def Con from 5.00993 +++++++++to 5.00993
Heightened Def Con from 5.00993 ++++++to 5.00993
Heightened Def Con from 5.00993 +to 5.00993
Heightened Def Con from 5.00993 +++++to 5.00993
Heightened Def Con from 5.00993 +++++to 5.00993
Heightened Def Con from 5.00993 +++++++++to 5.00993
Heightened Def Con from 5.00993 +++++++to 5.00993
Heightened Def Con from 5.00993 +++++++++to 5.00993
Heightened Def Con from 5.00993 +++++++++++to 5.00993
Heightened Def Con from 5.00993 +++++++++++to 5.00993
Heightened Def Con from 5.00993 ++++++++++++++to 5.00993
Heightened Def Con from 5.00993 ++++++++to 5.00993
Heightened Def Con from 5.00993 +++++++++to 5.00993
Heightened Def Con from 5.00993 ++++++++++++++to 5.00993
Heightened Def Con from 5.00993 +++++++++++to 5.00993
Heightened Def Con from 5.00993 +++++++++++++to 5.00993
Heightened Def Con from 5.00993 ++++++++++++to 5.00993
Heightened Def Con from 5.00993 +++++++++to 5.00993
Heightened Def Con from 5.00993 +to 5.00993
Heightened Def Con from 5.00993 +++++++to 5.00993
Heightened Def Con from 5.00993 to 5.00993
Heightened Def Con from 5.00993 +++to 5.00993
Heightened Def Con from 5.00993 to 5.00993
Heightened Def Con from 5.00993 to 5.00993
Heightened Def Con from 5.00993 ++to 5.00993
Heightened Def Con from 5.00993 +++to 5.00993
Heightened Def Con from 5.00993 +++to 5.00993
Heightened Def Con from 5.00993 +++++++to 5.00993
Heightened Def Con from 5.00993 ++++++++++++++to 5.00993
Heightened Def Con from 5.00993 +++++++to 5.00993
Heightened Def Con from 5.00993 to 5.00993
Heightened Def Con from 5.00993 to 5.00993
Heightened Def Con from 5.00993 +++to 5.00993
Heightened Def Con from 5.01 +++++++++++++to 5.01
Heightened Def Con from 5.01 +++++++to 5.01
Heightened Def Con from 5.01 +++++++++++to 5.01
Heightened Def Con from 5.01 +++++++++++++to 5.01
Heightened Def Con from 5.01 ++++++++++++to 5.01
Heightened Def Con from 5.01 ++++++++++++to 5.01
Heightened Def Con from 5.01 +++++++++to 5.01
Heightened Def Con from 5.01 ++++++++++++to 5.01
Heightened Def Con from 5.01 +++++++++to 5.01
Heightened Def Con from 5.01 ++++++++++++to 5.01
Heightened Def Con from 5.01 ++++++++++to 5.01
Heightened Def Con from 5.01 ++++++++++++++to 5.01
Heightened Def Con from 5.01 +++++++++to 5.01
Heightened Def Con from 5.01 ++++++++++to 5.01
Heightened Def Con from 5.01 ++++++++++++to 5.01
Heightened Def Con from 5.01 ++++++++++++to 5.01
Heightened Def Con from 5.01 ++++++++++to 5.01
Heightened Def Con from 5.01 +++++++++++++to 5.01
Heightened Def Con from 5.01 ++++++++++to 5.01
Heightened Def Con from 5.01 ++++++++++++++to 5.01
Heightened Def Con from 5.01 +++++++++++++to 5.01
Heightened Def Con from 5.01 +++++++++++to 5.01
Heightened Def Con from 5.01 +++++++++to 5.01
Heightened Def Con from 5.01 ++++++++++++++to 5.01
Heightened Def Con from 5.01 ++++++++++to 5.01
Heightened Def Con from 5.01 ++++++++++++to 5.01
Heightened Def Con from 5.01 +++++++++++++to 5.01
Heightened Def Con from 5.01 +++++++++++to 5.01
Heightened Def Con from 5.01 +++++++++++++to 5.01
Heightened Def Con from 5.01 +++++++++++++to 5.01
Heightened Def Con from 5.01 ++++++++++++++to 5.01
Heightened Def Con from 5.01 ++++++++++++to 5.01
Heightened Def Con from 5.01 ++++++++++++to 5.01
Heightened Def Con from 5.01 +++++++++++++++to 5.01
Heightened Def Con from 5.01 +++++++++++++++to 5.01
Heightened Def Con from 5.01 +++++++++++++++to 5.01
Heightened Def Con from 5.01 +++++++++++to 5.01
Heightened Def Con from 5.01 ++++++++++++++to 5.01
Heightened Def Con from 5.01 +++++++++++++to 5.01
Heightened Def Con from 5.01 ++++++++++to 5.01
Heightened Def Con from 5.01 to 5.01
Heightened Def Con from 5.01 to 5.01
Heightened Def Con from 5.01 to 5.01
Heightened Def Con from 5.01 +++to 5.01
Heightened Def Con from 5.01001 ++++++++++++to 5.01001
Heightened Def Con from 5.01001 ++++++++to 5.01001
Heightened Def Con from 5.01001 ++++++++to 5.01001
Heightened Def Con from 5.01001 +++++++++to 5.01001
Heightened Def Con from 5.01001 +++++++++++++to 5.01001
Heightened Def Con from 5.01001 ++++++++++++to 5.01001
Heightened Def Con from 5.01001 +++++++++++to 5.01001
Heightened Def Con from 5.01001 +++++++++++++to 5.01001
Heightened Def Con from 5.01001 +++++++++to 5.01001
Heightened Def Con from 5.01001 +++++++to 5.01001
Heightened Def Con from 5.01001 +to 5.01001
Heightened Def Con from 5.01001 +to 5.01001
Heightened Def Con from 5.01001 +to 5.01001
Heightened Def Con from 5.01001 +to 5.01001
Heightened Def Con from 5.01001 ++++++to 5.01001
Heightened Def Con from 5.01001 ++++to 5.01001
Heightened Def Con from 5.01001 ++++to 5.01001
Heightened Def Con from 5.01001 +++++++++++to 5.01001
Heightened Def Con from 5.01001 ++++++++++++++to 5.01001
Heightened Def Con from 5.01001 ++++++++++to 5.01001
Heightened Def Con from 5.01001 ++++++++to 5.01001
Heightened Def Con from 5.01001 ++++++++++++to 5.01001
Heightened Def Con from 5.01001 +++++++++++to 5.01001
Heightened Def Con from 5.01001 +++++++++++to 5.01001
Heightened Def Con from 5.01001 ++++++++++++to 5.01001
Heightened Def Con from 5.01001 +++++++++++++to 5.01001
Heightened Def Con from 5.01001 +++++++++++++to 5.01001
Heightened Def Con from 5.01001 ++++++++++++to 5.01001
Heightened Def Con from 5.01001 ++++++++++++++to 5.01001
Heightened Def Con from 5.01001 ++++++++++++++to 5.01001
Heightened Def Con from 5.01001 +++++++++++to 5.01001
Heightened Def Con from 5.01001 +++++++++++to 5.01001
Heightened Def Con from 5.01001 +++++++++to 5.01001
Heightened Def Con from 5.01001 +++++++++to 5.01001
Heightened Def Con from 5.01001 +++++++++++++to 5.01001
Heightened Def Con from 5.01001 ++++++++++++++to 5.01001
Heightened Def Con from 5.01001 ++++++++++++to 5.01001
Heightened Def Con from 5.01001 +++++++++++++++to 5.01001
Heightened Def Con from 5.01001 +++++++++++to 5.01001
Heightened Def Con from 5.01001 +++++++++++++++to 5.01001
Heightened Def Con from 5.01001 ++++++++++to 5.01001
Heightened Def Con from 5.01001 ++++++++++to 5.01001
Heightened Def Con from 5.01001 ++++++++++++++to 5.01001
Heightened Def Con from 5.01001 +++++++++++++to 5.01001
Heightened Def Con from 5.01001 +++++++++++++to 5.01001
Heightened Def Con from 5.01001 +++++++++++++to 5.01001
Heightened Def Con from 5.01001 +++++++++++to 5.01001
Heightened Def Con from 5.01001 ++++++++++to 5.01001
Heightened Def Con from 5.01001 ++++to 5.01001
Heightened Def Con from 5.0134 ++++++++to 5.0134
Heightened Def Con from 5.0134 +++++++++to 5.0134
Heightened Def Con from 5.0134 ++++++++++++++to 5.0134
Heightened Def Con from 5.0134 +++++++++++++to 5.0134
Heightened Def Con from 5.0134 ++++++++++to 5.0134
Heightened Def Con from 5.0134 ++++++++++to 5.0134
Heightened Def Con from 5.0134 ++++++++++++++to 5.0134
Heightened Def Con from 5.0134 ++++++++++++++to 5.0134
Heightened Def Con from 5.0134 ++++++++++to 5.0134
Heightened Def Con from 5.0134 +++++++++++++to 5.0134
Heightened Def Con from 5.0134 +++++++++++++to 5.0134
Heightened Def Con from 5.0134 ++++++++++to 5.0134
Heightened Def Con from 5.0134 +++++++++++to 5.0134
Heightened Def Con from 5.0134 +++++++++++++to 5.0134
Heightened Def Con from 5.0134 +++++++++to 5.0134
Heightened Def Con from 5.0134 +++++++++++to 5.0134
Heightened Def Con from 5.0134 ++++++++++to 5.0134
Heightened Def Con from 5.0134 ++++++++++++to 5.0134
Heightened Def Con from 5.0134 +++++++++++++to 5.0134
Heightened Def Con from 5.0134 +++++++++++++to 5.0134
Heightened Def Con from 5.0134 ++++++++++++to 5.0134
Heightened Def Con from 5.0134 ++++++++++++to 5.0134
Heightened Def Con from 5.0134 ++++++++++++++to 5.0134
Heightened Def Con from 5.0134 ++++++++++++to 5.0134
Heightened Def Con from 5.0134 +++++++++++++to 5.0134
Heightened Def Con from 5.0134 ++++++++++to 5.0134
Heightened Def Con from 5.0134 ++++++++++to 5.0134
Heightened Def Con from 5.0134 +++++++++++++to 5.0134
Heightened Def Con from 5.0134 +++++++++to 5.0134
Heightened Def Con from 5.0134 +++to 5.0134
Heightened Def Con from 5.0134 +++to 5.0134
Heightened Def Con from 5.0134 ++++to 5.0134
Heightened Def Con from 5.0134 ++to 5.0134
Heightened Def Con from 5.0134 to 5.0134
Heightened Def Con from 5.0134 +to 5.0134
Heightened Def Con from 5.0134 to 5.0134
Heightened Def Con from 5.0134 to 5.0134
Heightened Def Con from 5.0134 +to 5.0134
Heightened Def Con from 5.0134 ++++++++++++to 5.0134
Heightened Def Con from 5.0134 ++++++++++++to 5.0134
Heightened Def Con from 5.0134 ++++++++++++++to 5.0134
Heightened Def Con from 5.0134 +++++++to 5.0134
Heightened Def Con from 5.0134 +++++++++++to 5.0134
Heightened Def Con from 5.0134 ++++++to 5.0134
Heightened Def Con from 5.0134 +++++to 5.0134
Heightened Def Con from 5.0134 to 5.0134
Heightened Def Con from 5.0134 to 5.0134
Heightened Def Con from 5.0134 +++++to 5.0134
Heightened Def Con from 5.0134 +++++to 5.0134
Heightened Def Con from 5.0134 ++to 5.0134
Heightened Def Con from 5.0134 to 5.0134
Heightened Def Con from 5.0134 ++to 5.0134
Heightened Def Con from 5.0134 +to 5.0134
Heightened Def Con from 5.0134 +++++to 5.0134
Heightened Def Con from 5.0134 ++to 5.0134
Heightened Def Con from 5.0134 ++++to 5.0134
Heightened Def Con from 5.0134 +++++++++++to 5.0134
Heightened Def Con from 5.0134 ++++++++to 5.0134
Heightened Def Con from 5.0134 +++++++++++to 5.0134
Heightened Def Con from 5.0134 ++++++++++++to 5.0134
Heightened Def Con from 5.0134 ++++++++++++++to 5.0134
Heightened Def Con from 5.0134 ++++++++++++++to 5.0134
Heightened Def Con from 5.0134 +++++++++to 5.0134
Heightened Def Con from 5.0134 ++++++++++++++to 5.0134
Heightened Def Con from 5.0134 ++++++++++to 5.0134
Heightened Def Con from 5.0134 ++to 5.0134
Heightened Def Con from 5.0134 ++to 5.0134
Heightened Def Con from 5.0134 +++++to 5.0134
Heightened Def Con from 5.0134 +to 5.0134
Heightened Def Con from 5.0134 +to 5.0134
Heightened Def Con from 5.0134 to 5.0134
Heightened Def Con from 5.0134 ++++to 5.0134
Heightened Def Con from 5.0134 to 5.0134
Heightened Def Con from 5.01341 ++++++++to 5.01341
Heightened Def Con from 5.01341 ++++++++++++++to 5.01341
Heightened Def Con from 5.01341 +++++++++++to 5.01341
Heightened Def Con from 5.01341 ++++++++++++to 5.01341
Heightened Def Con from 5.01341 +++++++++++to 5.01341
Heightened Def Con from 5.01341 +++++++to 5.01341
Heightened Def Con from 5.01341 ++to 5.01341
Heightened Def Con from 5.01341 ++to 5.01341
Heightened Def Con from 5.01341 ++++++++++to 5.01341
Heightened Def Con from 5.01341 ++++++++++++to 5.01341
Heightened Def Con from 5.01341 ++++++++to 5.01341
Heightened Def Con from 5.01341 +++++++++++++++to 5.01341
Heightened Def Con from 5.01341 ++++++++++++++to 5.01341
Heightened Def Con from 5.01341 ++++++++++++++to 5.01341
Heightened Def Con from 5.01341 ++++++++++++++to 5.01341
Heightened Def Con from 5.01341 +++++++++++++to 5.01341
Heightened Def Con from 5.01341 +++++++++++to 5.01341
Heightened Def Con from 5.01341 ++++to 5.01341
Heightened Def Con from 5.01341 to 5.01341
Heightened Def Con from 5.01341 +++++++++++to 5.01341
Heightened Def Con from 5.01341 +++++++++++++to 5.01341
Heightened Def Con from 5.01341 ++++++++++to 5.01341
Heightened Def Con from 5.01341 ++++++to 5.01341
Heightened Def Con from 5.01341 ++++++to 5.01341
Heightened Def Con from 5.01341 to 5.01341
Heightened Def Con from 5.01341 ++to 5.01341
Heightened Def Con from 5.01341 +++to 5.01341
Heightened Def Con from 5.01341 +++++++to 5.01341
Heightened Def Con from 5.01341 +++++++++to 5.01341
Heightened Def Con from 5.01341 ++++++++++to 5.01341
Heightened Def Con from 5.01341 ++++++++++++to 5.01341
Heightened Def Con from 5.01341 +++++++++++to 5.01341
Heightened Def Con from 5.01341 +++++++++++++to 5.01341
Heightened Def Con from 5.01341 ++++++++++to 5.01341
Heightened Def Con from 5.01341 ++++++++++to 5.01341
Heightened Def Con from 5.01341 ++++++++++++++to 5.01341
Heightened Def Con from 5.01341 ++++++++++to 5.01341
Heightened Def Con from 5.01341 ++++++++to 5.01341
Heightened Def Con from 5.01341 ++++++to 5.01341
Heightened Def Con from 5.01341 +to 5.01341
Heightened Def Con from 5.01341 +++++to 5.01341
Heightened Def Con from 5.01341 to 5.01341
Heightened Def Con from 5.01341 +to 5.01341
Heightened Def Con from 5.01341 ++to 5.01341
Heightened Def Con from 5.01341 to 5.01341
Heightened Def Con from 5.01341 +++to 5.01341
Heightened Def Con from 5.01341 to 5.01341
Heightened Def Con from 5.01341 ++++to 5.01341
Heightened Def Con from 5.01341 to 5.01341
Heightened Def Con from 5.01341 +++++++++++to 5.01341
Heightened Def Con from 5.01341 +++++++++++++++to 5.01341
Heightened Def Con from 5.01341 ++++++++++++to 5.01341
Heightened Def Con from 5.01341 +++++++++to 5.01341
Heightened Def Con from 5.01341 +++++++++++++to 5.01341
Heightened Def Con from 5.01341 +++++++++++to 5.01341
Heightened Def Con from 5.01341 ++++++++++++to 5.01341
Heightened Def Con from 5.01341 ++++++++++++to 5.01341
Heightened Def Con from 5.01341 +++++++++++to 5.01341
Heightened Def Con from 5.01341 +++++++++to 5.01341
Heightened Def Con from 5.01341 +++++++++++to 5.01341
Heightened Def Con from 5.01341 +++++++++++++to 5.01341
Heightened Def Con from 5.01341 +++++++++++++to 5.01341
Heightened Def Con from 5.01341 ++++++++++to 5.01341
Heightened Def Con from 5.01341 ++++++++++++++to 5.01341
Heightened Def Con from 5.01341 +++++++++++++to 5.01341
Heightened Def Con from 5.01341 +++++++++++++++to 5.01341
Heightened Def Con from 5.01341 +++++++++++to 5.01341
Heightened Def Con from 5.01341 +++++++++++to 5.01341
Heightened Def Con from 5.01341 +++++++++++++to 5.01341
Heightened Def Con from 5.01341 +++++++++++++to 5.01341
Heightened Def Con from 5.01341 ++++++++++++to 5.01341
Heightened Def Con from 5.01341 ++++++++++++to 5.01341
Heightened Def Con from 5.01341 ++++++++++++++to 5.01341
Heightened Def Con from 5.01341 ++++++++++to 5.01341
Heightened Def Con from 5.01341 +++++++++++++++to 5.01341
Heightened Def Con from 5.01341 ++++++++++++++to 5.01341
Heightened Def Con from 5.01341 +++++++++++++to 5.01341
Heightened Def Con from 5.01341 +++++++++++++++to 5.01341
Heightened Def Con from 5.01341 ++++++++++++++++to 5.01341
Heightened Def Con from 5.01341 +++++++++++to 5.01341
Heightened Def Con from 5.01341 ++++++++++++++to 5.01341
Heightened Def Con from 5.01341 ++++++++++++++to 5.01341
Heightened Def Con from 5.01341 ++++++++++++++to 5.01341
Heightened Def Con from 5.01341 +++++++++++to 5.01341
Heightened Def Con from 5.01341 to 5.01341
Heightened Def Con from 5.01341 ++to 5.01341
Heightened Def Con from 5.01341 ++to 5.01341
Heightened Def Con from 5.01341 ++to 5.01341
Heightened Def Con from 5.01341 ++++++++to 5.01341
Heightened Def Con from 5.01341 ++++++++++++++to 5.01341
Heightened Def Con from 5.01341 ++++++++++++to 5.01341
Heightened Def Con from 5.01341 +++++++++++++to 5.01341
Heightened Def Con from 5.01341 +++++++++++to 5.01341
Heightened Def Con from 5.01341 +++++++++++++to 5.01341
Heightened Def Con from 5.01341 ++++++++to 5.01341
Heightened Def Con from 5.01341 ++++++++to 5.01341
Heightened Def Con from 5.01341 ++to 5.01341
Heightened Def Con from 5.01341 ++to 5.01341
Heightened Def Con from 5.01341 ++to 5.01341
Heightened Def Con from 5.01341 to 5.01341
Heightened Def Con from 5.01341 +to 5.01341
Heightened Def Con from 5.01341 +to 5.01341
Heightened Def Con from 5.01341 +++to 5.01341
Heightened Def Con from 5.01341 ++to 5.01341
Heightened Def Con from 5.01341 ++to 5.01341
Heightened Def Con from 5.01341 +to 5.01341
Heightened Def Con from 5.01341 +to 5.01341
Heightened Def Con from 5.01341 ++to 5.01341
Heightened Def Con from 5.01341 to 5.01341
Heightened Def Con from 5.01341 ++++++++++to 5.01341
Heightened Def Con from 5.01341 ++++++++to 5.01341
Heightened Def Con from 5.01341 +++++++++++to 5.01341
Heightened Def Con from 5.01341 +++++++++++++to 5.01341
Heightened Def Con from 5.01341 ++++++++++++++to 5.01341
Heightened Def Con from 5.01341 ++++++++++++to 5.01341
Heightened Def Con from 5.01341 ++++++++++++++to 5.01341
Heightened Def Con from 5.01341 ++++++++++to 5.01341
Heightened Def Con from 5.01341 ++++++++++++++to 5.01341
Heightened Def Con from 5.01341 ++++++++++++++to 5.01341
Heightened Def Con from 5.01341 ++++++++++++++to 5.01341
Heightened Def Con from 5.01341 +++++++++++to 5.01341
Heightened Def Con from 5.01341 ++++++++++to 5.01341
Heightened Def Con from 5.01341 +++++++++++to 5.01341
Heightened Def Con from 5.01341 +++++++++to 5.01341
Heightened Def Con from 5.01341 ++++to 5.01341
Heightened Def Con from 5.01341 to 5.01341
Heightened Def Con from 5.01341 to 5.01341
Heightened Def Con from 5.01341 +++to 5.01341
Heightened Def Con from 5.01341 +++++to 5.01341
Heightened Def Con from 5.01341 +++++to 5.01341
Heightened Def Con from 5.01341 ++++++++++to 5.01341
Heightened Def Con from 5.01341 +++++++++to 5.01341
Heightened Def Con from 5.01341 +++++++++to 5.01341
Heightened Def Con from 5.01341 +++++++++++++to 5.01341
Heightened Def Con from 5.01341 +++++++++to 5.01341
Heightened Def Con from 5.01341 ++++++++++++++to 5.01341
Heightened Def Con from 5.01341 ++++++++++to 5.01341
Heightened Def Con from 5.01341 +++++++++++to 5.01341
Heightened Def Con from 5.01341 +++++++++++++to 5.01341
Heightened Def Con from 5.01341 +++++++++++to 5.01341
Heightened Def Con from 5.01341 ++++++++++++++to 5.01341
Heightened Def Con from 5.01341 +++++++++to 5.01341
Heightened Def Con from 5.01341 ++to 5.01341
Heightened Def Con from 5.01341 +to 5.01341
Heightened Def Con from 5.01342 +++++++++to 5.01342
Heightened Def Con from 5.01342 +++++++++++++++to 5.01342
Heightened Def Con from 5.01342 +++++++++++++++to 5.01342
Heightened Def Con from 5.01342 ++++++++++to 5.01342
Heightened Def Con from 5.01342 ++++++++++++to 5.01342
Heightened Def Con from 5.01342 ++++++++++++to 5.01342
Heightened Def Con from 5.01342 +++++++++++++++to 5.01342
Heightened Def Con from 5.01342 ++++++++++++to 5.01342
Heightened Def Con from 5.01342 +++++++++to 5.01342
Heightened Def Con from 5.01342 ++++++++to 5.01342
Heightened Def Con from 5.01342 +to 5.01342
Heightened Def Con from 5.01743 ++++++++++to 5.01743
Heightened Def Con from 5.01743 +++++++++++to 5.01743
Heightened Def Con from 5.01743 ++++++++++++++to 5.01743
Heightened Def Con from 5.01743 +++++++++to 5.01743
Heightened Def Con from 5.01743 +++++++++++++to 5.01743
Heightened Def Con from 5.01743 ++++++++++to 5.01743
Heightened Def Con from 5.01743 ++++++++++++++++to 5.01743
Heightened Def Con from 5.01743 +++++++++++++to 5.01743
Heightened Def Con from 5.01743 +++++++++++++++to 5.01743
Heightened Def Con from 5.01743 ++++++++++++++to 5.01743
Heightened Def Con from 5.01743 +++++++++++++to 5.01743
Heightened Def Con from 5.01743 ++++++++++++++to 5.01743
Heightened Def Con from 5.01743 ++++++++++to 5.01743
Heightened Def Con from 5.01743 +to 5.01743
Heightened Def Con from 5.01743 +++++++++++to 5.01743
Heightened Def Con from 5.01743 ++++++++++++++to 5.01743
Heightened Def Con from 5.01743 +++++++++++to 5.01743
Heightened Def Con from 5.01743 +++++++++++++to 5.01743
Heightened Def Con from 5.01743 ++++++++++++to 5.01743
Heightened Def Con from 5.01743 ++++++++++++to 5.01743
Heightened Def Con from 5.01743 ++++++++++++to 5.01743
Heightened Def Con from 5.01743 ++++++++++to 5.01743
Heightened Def Con from 5.01743 +++++++++++++to 5.01743
Heightened Def Con from 5.01743 +++++++++++++to 5.01743
Heightened Def Con from 5.01743 +++++++++to 5.01743
Heightened Def Con from 5.01743 +++++++++to 5.01743
Heightened Def Con from 5.01743 ++++++++++to 5.01743
Heightened Def Con from 5.01743 +++++++++to 5.01743
Heightened Def Con from 5.01743 to 5.01743
Heightened Def Con from 5.01743 +to 5.01743
Heightened Def Con from 5.01743 +to 5.01743
Heightened Def Con from 5.01743 +to 5.01743
Heightened Def Con from 5.01743 ++++to 5.01743
Heightened Def Con from 5.01743 to 5.01743
Heightened Def Con from 5.01743 +to 5.01743
Heightened Def Con from 5.01743 +++++++++++to 5.01743
Heightened Def Con from 5.01743 ++++++++++++to 5.01743
Heightened Def Con from 5.01743 +++++++++++++++to 5.01743
Heightened Def Con from 5.01743 ++++++++++++to 5.01743
Heightened Def Con from 5.01743 +++++++++++++to 5.01743
Heightened Def Con from 5.01743 ++++++++++++to 5.01743
Heightened Def Con from 5.01743 +++++++++++++to 5.01743
Heightened Def Con from 5.01743 +++++++++++to 5.01743
Heightened Def Con from 5.01743 +++++++++++to 5.01743
Heightened Def Con from 5.01743 ++++++++++++++to 5.01743
Heightened Def Con from 5.01743 ++++++++++to 5.01743
Heightened Def Con from 5.01743 +++++++++++to 5.01743
Heightened Def Con from 5.01743 ++++++++++++++to 5.01743
Heightened Def Con from 5.01743 +++++++++++++++to 5.01743
Heightened Def Con from 5.01743 ++++++++++++to 5.01743
Heightened Def Con from 5.01743 ++++++++++++to 5.01743
Heightened Def Con from 5.01743 +++++++++++++to 5.01743
Heightened Def Con from 5.01743 +++++++++++to 5.01743
Heightened Def Con from 5.01743 ++++++++++++to 5.01743
Heightened Def Con from 5.01743 +++++++++++to 5.01743
Heightened Def Con from 5.01743 ++++++++++to 5.01743
Heightened Def Con from 5.01743 ++++++++++to 5.01743
Heightened Def Con from 5.01743 ++++++++++++to 5.01743
Heightened Def Con from 5.01743 ++++++++++++to 5.01743
Heightened Def Con from 5.01743 ++++++++++++to 5.01743
Heightened Def Con from 5.01743 +++++++++++++to 5.01743
Heightened Def Con from 5.01743 +++++++++++to 5.01743
Heightened Def Con from 5.01743 +++++++++++++to 5.01743
Heightened Def Con from 5.01743 +++++++++++to 5.01743
Heightened Def Con from 5.01743 +++++++++++++to 5.01743
Heightened Def Con from 5.01743 +++++++++++++to 5.01743
Heightened Def Con from 5.01743 +++++++++++++to 5.01743
Heightened Def Con from 5.01743 ++++++++++++to 5.01743
Heightened Def Con from 5.01743 ++++++++++++++to 5.01743
Heightened Def Con from 5.01743 ++++++++++++to 5.01743
Heightened Def Con from 5.01743 +++++++++++to 5.01743
Heightened Def Con from 5.01743 ++++++++++++++to 5.01743
Heightened Def Con from 5.01743 +++++++++++to 5.01743
Heightened Def Con from 5.01743 ++++++++++++++to 5.01743
Heightened Def Con from 5.01743 ++++++++++to 5.01743
Heightened Def Con from 5.01743 +++++++++to 5.01743
Heightened Def Con from 5.01743 ++to 5.01743
Heightened Def Con from 5.01743 to 5.01743
Heightened Def Con from 5.01743 +to 5.01743
Heightened Def Con from 5.01743 ++to 5.01743
Heightened Def Con from 5.01743 to 5.01743
Heightened Def Con from 5.01743 +to 5.01743
Heightened Def Con from 5.01743 +to 5.01743
Heightened Def Con from 5.01743 +to 5.01743
Heightened Def Con from 5.01743 ++to 5.01743
Heightened Def Con from 5.01743 to 5.01743
Heightened Def Con from 5.01743 +to 5.01743
Heightened Def Con from 5.01743 +++to 5.01743
Heightened Def Con from 5.01743 ++++to 5.01743
Heightened Def Con from 5.01743 to 5.01743
Heightened Def Con from 5.01743 to 5.01743
Heightened Def Con from 5.01744 +++++++++to 5.01744
Heightened Def Con from 5.01744 ++++++++++++to 5.01744
Heightened Def Con from 5.01744 ++++++++++++++to 5.01744
Heightened Def Con from 5.01744 ++++++++++++++to 5.01744
Heightened Def Con from 5.01744 +++++++++++to 5.01744
Heightened Def Con from 5.01744 ++++++++to 5.01744
Heightened Def Con from 5.01744 to 5.01744
Heightened Def Con from 5.01744 ++to 5.01744
Heightened Def Con from 5.01744 +to 5.01744
Heightened Def Con from 5.01744 +++++++++++++to 5.01744
Heightened Def Con from 5.01744 ++++++++++++++to 5.01744
Heightened Def Con from 5.01744 +++++++++++++++to 5.01744
Heightened Def Con from 5.01744 +++++++++to 5.01744
Heightened Def Con from 5.01744 +++++++++++to 5.01744
Heightened Def Con from 5.01744 ++++++++++++to 5.01744
Heightened Def Con from 5.01744 ++++++++++++to 5.01744
Heightened Def Con from 5.01744 +++++++++++to 5.01744
Heightened Def Con from 5.01744 ++++++++++to 5.01744
Heightened Def Con from 5.01744 +++++++++++to 5.01744
Heightened Def Con from 5.01744 ++++++++++++++to 5.01744
Heightened Def Con from 5.01744 +++++++++++++to 5.01744
Heightened Def Con from 5.01744 ++++++++++++++to 5.01744
Heightened Def Con from 5.01744 ++++++++++++++to 5.01744
Heightened Def Con from 5.01744 +++++++++to 5.01744
Heightened Def Con from 5.01744 +++to 5.01744
Heightened Def Con from 5.01745 ++++++++++++++to 5.01745
Heightened Def Con from 5.01745 +++++++++++to 5.01745
Heightened Def Con from 5.01745 +++++++++to 5.01745
Heightened Def Con from 5.01745 ++++++++++to 5.01745
Heightened Def Con from 5.01745 +++++++++++to 5.01745
Heightened Def Con from 5.01745 +++++++to 5.01745
Heightened Def Con from 5.01745 +to 5.01745
Heightened Def Con from 5.01745 +to 5.01745
Heightened Def Con from 5.01745 +to 5.01745
Heightened Def Con from 5.01745 to 5.01745
Heightened Def Con from 5.01745 +to 5.01745
Heightened Def Con from 5.01745 +++++++++to 5.01745
Heightened Def Con from 5.01745 ++++++++to 5.01745
Heightened Def Con from 5.01745 ++++++++to 5.01745
Heightened Def Con from 5.01745 +++++++++++to 5.01745
Heightened Def Con from 5.01745 +++++++++++to 5.01745
Heightened Def Con from 5.01745 ++++++++++++++to 5.01745
Heightened Def Con from 5.01745 +++++++++to 5.01745
Heightened Def Con from 5.01745 ++++++++++++to 5.01745
Heightened Def Con from 5.01745 +++++++++++++to 5.01745
Heightened Def Con from 5.01745 +++++++++to 5.01745
Heightened Def Con from 5.01745 +++++++++++++to 5.01745
Heightened Def Con from 5.01745 +++++++++to 5.01745
Heightened Def Con from 5.01745 +++++++++to 5.01745
Heightened Def Con from 5.01745 ++++++++to 5.01745
Heightened Def Con from 5.01745 ++to 5.01745
Heightened Def Con from 5.01745 ++to 5.01745
Heightened Def Con from 5.01745 to 5.01745
Heightened Def Con from 5.01745 ++++++++++to 5.01745
Heightened Def Con from 5.01745 ++++++++++to 5.01745
Heightened Def Con from 5.01745 +++++++++++++++to 5.01745
Heightened Def Con from 5.01745 ++++++++++++++to 5.01745
Heightened Def Con from 5.01745 ++++++++++++to 5.01745
Heightened Def Con from 5.01745 +++++++++++++to 5.01745
Heightened Def Con from 5.01745 +++++++++++++to 5.01745
Heightened Def Con from 5.01745 +++++++++++to 5.01745
Heightened Def Con from 5.01745 ++++++++++++to 5.01745
Heightened Def Con from 5.01745 ++++++++++++++to 5.01745
Heightened Def Con from 5.01745 ++++++++++++to 5.01745
Heightened Def Con from 5.01745 ++++++++++to 5.01745
Heightened Def Con from 5.01745 +++++++++to 5.01745
Heightened Def Con from 5.01745 ++++++to 5.01745
Heightened Def Con from 5.01745 to 5.01745
Heightened Def Con from 5.01745 to 5.01745
Heightened Def Con from 5.01745 ++++to 5.01745
Heightened Def Con from 5.01745 to 5.01745
Heightened Def Con from 5.01745 +to 5.01745
Heightened Def Con from 5.01757 +++++++++++++to 5.01758
Heightened Def Con from 5.01758 ++++++++++++to 5.01758
Heightened Def Con from 5.01758 ++++++++++++to 5.01758
Heightened Def Con from 5.01758 ++++++++++to 5.01758
Heightened Def Con from 5.01758 +++++++++++to 5.01758
Heightened Def Con from 5.01758 ++++++++++++to 5.01758
Heightened Def Con from 5.01758 +++++++to 5.01758
Heightened Def Con from 5.01758 ++++to 5.01758
Heightened Def Con from 5.01758 to 5.01758
Heightened Def Con from 5.01758 ++to 5.01758
Heightened Def Con from 5.01758 ++to 5.01758
Heightened Def Con from 5.01758 ++++++++++++++to 5.01758
Heightened Def Con from 5.01758 ++++++++++++++to 5.01758
Heightened Def Con from 5.01758 ++++++++to 5.01758
Heightened Def Con from 5.01758 ++to 5.01758
Heightened Def Con from 5.01758 ++to 5.01758
Heightened Def Con from 5.01758 +++++++to 5.01758
Heightened Def Con from 5.01758 ++to 5.01758
Heightened Def Con from 5.01758 to 5.01758
Heightened Def Con from 5.01758 ++to 5.01758
Heightened Def Con from 5.01758 +++++++to 5.01758
Heightened Def Con from 5.01758 +++++to 5.01758
Heightened Def Con from 5.01758 ++++to 5.01758
Heightened Def Con from 5.01758 to 5.01758
Heightened Def Con from 5.01758 ++to 5.01758
Heightened Def Con from 5.01758 +++++++++to 5.01758
Heightened Def Con from 5.01758 ++++++++++++to 5.01758
Heightened Def Con from 5.01758 +++++++++++to 5.01758
Heightened Def Con from 5.01758 +++++++++++to 5.01758
Heightened Def Con from 5.01758 +++++++++++to 5.01758
Heightened Def Con from 5.01758 +++++++++++++to 5.01758
Heightened Def Con from 5.01758 +++++++++++++++to 5.01758
Heightened Def Con from 5.01758 ++++++++++++to 5.01758
Heightened Def Con from 5.01758 ++++++++++++++to 5.01758
Heightened Def Con from 5.01758 +++++++++++++++to 5.01758
Heightened Def Con from 5.01758 +++++++++++to 5.01758
Heightened Def Con from 5.01758 +++++++++++to 5.01758
Heightened Def Con from 5.01758 ++++++++++to 5.01758
Heightened Def Con from 5.01758 +++++++++++to 5.01758
Heightened Def Con from 5.01758 +++++++++++++to 5.01758
Heightened Def Con from 5.01758 +++++++++++++to 5.01758
Heightened Def Con from 5.01758 +++++++++++to 5.01758
Heightened Def Con from 5.01758 +++++++++++++to 5.01758
Heightened Def Con from 5.01758 +++++++++++++to 5.01758
Heightened Def Con from 5.01758 +++++++++++++to 5.01758
Heightened Def Con from 5.01758 ++++++++++to 5.01758
Heightened Def Con from 5.01758 ++++++++++to 5.01758
Heightened Def Con from 5.01758 ++++++++++++to 5.01758
Heightened Def Con from 5.01758 ++++++++++to 5.01758
Heightened Def Con from 5.01758 ++++++++++++++to 5.01758
Heightened Def Con from 5.01758 ++++++++++to 5.01758
Heightened Def Con from 5.01758 ++++++++++++++to 5.01758
Heightened Def Con from 5.01758 +++++++++++++to 5.01758
Heightened Def Con from 5.01758 +++++++++++to 5.01758
Heightened Def Con from 5.01758 +to 5.01758
Heightened Def Con from 5.01758 +++++++++++to 5.01758
Heightened Def Con from 5.01758 +++++++++++++to 5.01758
Heightened Def Con from 5.01758 ++++++++++to 5.01758
Heightened Def Con from 5.01758 +++++++++++to 5.01758
Heightened Def Con from 5.01758 +++++++++++++to 5.01758
Heightened Def Con from 5.01758 +++++++to 5.01758
Heightened Def Con from 5.01758 ++++to 5.01758
Heightened Def Con from 5.01758 +++to 5.01758
Heightened Def Con from 5.01758 ++to 5.01758
Heightened Def Con from 5.01758 +++++++++to 5.01758
Heightened Def Con from 5.01758 +++++++to 5.01758
Heightened Def Con from 5.01758 to 5.01758
Heightened Def Con from 5.01758 ++++++++++++to 5.01758
Heightened Def Con from 5.01758 +++++++to 5.01758
Heightened Def Con from 5.01758 to 5.01758
Heightened Def Con from 5.01758 ++++to 5.01758
Heightened Def Con from 5.01758 ++to 5.01758
Heightened Def Con from 5.01758 +to 5.01758
Heightened Def Con from 5.01758 ++to 5.01758
Heightened Def Con from 5.01758 to 5.01758
Heightened Def Con from 5.01758 ++++to 5.01758
Heightened Def Con from 5.01758 ++++++++++to 5.01758
Heightened Def Con from 5.01758 +++++++++++to 5.01758
Heightened Def Con from 5.01758 +++++++to 5.01758
Heightened Def Con from 5.01758 +++++++++++to 5.01758
Heightened Def Con from 5.01758 ++++++++to 5.01758
Heightened Def Con from 5.01758 ++++++++++++++to 5.01758
Heightened Def Con from 5.01758 +++++++++++++to 5.01758
Heightened Def Con from 5.01758 +++++++++++++to 5.01758
Heightened Def Con from 5.01758 +++++++++++++to 5.01758
Heightened Def Con from 5.01758 +++++++++++to 5.01758
Heightened Def Con from 5.01758 +++++++++++to 5.01758
Heightened Def Con from 5.01758 +++++++++++++++to 5.01758
Heightened Def Con from 5.01758 to 5.01758
Heightened Def Con from 5.01758 to 5.01758
Heightened Def Con from 5.01758 +to 5.01758
Heightened Def Con from 5.01758 +to 5.01758
Heightened Def Con from 5.01758 to 5.01758
Heightened Def Con from 5.01758 +to 5.01758
Heightened Def Con from 5.01759 ++++++++++to 5.01759
Heightened Def Con from 5.01759 ++++++++++++++to 5.01759
Heightened Def Con from 5.01759 +++++++++++++to 5.01759
Heightened Def Con from 5.01759 ++++++++++++++to 5.01759
Heightened Def Con from 5.01759 +++++++++++++++to 5.01759
Heightened Def Con from 5.01759 ++++++++++++++to 5.01759
Heightened Def Con from 5.01759 +++++++++++to 5.01759
Heightened Def Con from 5.01759 +++++++++to 5.01759
Heightened Def Con from 5.01759 +to 5.01759
Heightened Def Con from 5.01759 to 5.01759
Heightened Def Con from 5.01759 +++to 5.01759
Heightened Def Con from 5.01759 to 5.01759
Heightened Def Con from 5.01759 to 5.01759
Heightened Def Con from 5.01759 to 5.01759
Heightened Def Con from 5.01759 to 5.01759
Heightened Def Con from 5.01759 to 5.01759
Heightened Def Con from 5.01759 +to 5.01759
Heightened Def Con from 5.01759 ++++++++++to 5.01759
Heightened Def Con from 5.01759 ++++++++++to 5.01759
Heightened Def Con from 5.01759 ++++++++to 5.01759
Heightened Def Con from 5.01759 +++++++++to 5.01759
Heightened Def Con from 5.01759 ++++++++to 5.01759
Heightened Def Con from 5.01759 ++++++++++++to 5.01759
Heightened Def Con from 5.01759 +++++++++++++to 5.01759
Heightened Def Con from 5.01759 ++++++++++++to 5.01759
Heightened Def Con from 5.01759 +++++++++++++to 5.01759
Heightened Def Con from 5.01759 +++++++++++++to 5.01759
Heightened Def Con from 5.01759 +++++++++to 5.01759
Heightened Def Con from 5.01759 +++++++++to 5.01759
Heightened Def Con from 5.01759 +++++++++++to 5.01759
Heightened Def Con from 5.01759 +++++++++++to 5.01759
Heightened Def Con from 5.01759 +++++++++++to 5.01759
Heightened Def Con from 5.01759 +++++++++++to 5.01759
Heightened Def Con from 5.01759 +++++++++++to 5.01759
Heightened Def Con from 5.01759 ++++++++++++++to 5.01759
Heightened Def Con from 5.01759 +++++++++++to 5.01759
Heightened Def Con from 5.01759 ++++++++++++to 5.01759
Heightened Def Con from 5.01759 ++++++++to 5.01759
Heightened Def Con from 5.01759 +++++to 5.01759
Heightened Def Con from 5.01759 ++++++++to 5.01759
Heightened Def Con from 5.01759 to 5.01759
Heightened Def Con from 5.01759 ++to 5.01759
Heightened Def Con from 5.01759 ++to 5.01759
Heightened Def Con from 5.01759 to 5.01759
Heightened Def Con from 5.01759 ++++to 5.01759
Heightened Def Con from 5.01759 +++to 5.01759
Heightened Def Con from 5.01759 +++to 5.01759
Heightened Def Con from 5.01759 +to 5.01759
Heightened Def Con from 5.0176 ++++++++to 5.0176
Heightened Def Con from 5.0176 ++++++++++++to 5.0176
Heightened Def Con from 5.0176 ++++++++to 5.0176
Heightened Def Con from 5.0176 +++++++++to 5.0176
Heightened Def Con from 5.0176 +++++++++++to 5.0176
Heightened Def Con from 5.0176 +++++++++++++to 5.0176
Heightened Def Con from 5.0176 ++++++++++to 5.0176
Heightened Def Con from 5.0176 +++++++++to 5.0176
Heightened Def Con from 5.0176 +++++++++to 5.0176
Heightened Def Con from 5.0176 +++++++++++to 5.0176
Heightened Def Con from 5.0176 ++++++to 5.0176
Heightened Def Con from 5.0176 +++++++++++++to 5.0176
Heightened Def Con from 5.0176 +++++++++++to 5.0176
Heightened Def Con from 5.0176 +++++++++to 5.0176
Heightened Def Con from 5.0176 +++++++++++to 5.0176
Heightened Def Con from 5.0176 ++++++++++to 5.0176
Heightened Def Con from 5.0176 +++++++++to 5.0176
Heightened Def Con from 5.0176 +++++++++++++++to 5.0176
Heightened Def Con from 5.0176 +++++++++to 5.0176
Heightened Def Con from 5.0176 ++++++++++++++to 5.0176
Heightened Def Con from 5.0176 ++++++++++to 5.0176
Heightened Def Con from 5.0176 +++++++++++++to 5.0176
Heightened Def Con from 5.0176 +++++++++to 5.0176
Heightened Def Con from 5.0176 ++++++to 5.0176
Heightened Def Con from 5.0176 to 5.0176
Heightened Def Con from 5.0176 ++to 5.0176
Heightened Def Con from 5.0176 +to 5.0176
Heightened Def Con from 5.0176 ++to 5.0176
Heightened Def Con from 5.0176 ++++++++++to 5.0176
Heightened Def Con from 5.0176 ++++++++to 5.0176
Heightened Def Con from 5.0176 ++++++++++++++to 5.0176
Heightened Def Con from 5.0176 +++++++++to 5.0176
Heightened Def Con from 5.0176 +++++++++to 5.0176
Heightened Def Con from 5.0176 +++++++++to 5.0176
Heightened Def Con from 5.0176 ++++++++to 5.0176
Heightened Def Con from 5.0176 +++++++to 5.0176
Heightened Def Con from 5.0176 ++++++++to 5.0176
Heightened Def Con from 5.0176 ++++++++++++to 5.0176
Heightened Def Con from 5.0176 +++++++++to 5.0176
Heightened Def Con from 5.0176 +++++++++to 5.0176
Heightened Def Con from 5.0176 +++++++++to 5.0176
Heightened Def Con from 5.0176 ++++++++++++to 5.0176
Heightened Def Con from 5.0176 +++++++++++to 5.0176
Heightened Def Con from 5.0176 +++++++++++++to 5.0176
Heightened Def Con from 5.0176 +++++++to 5.0176
Heightened Def Con from 5.0176 to 5.0176
Heightened Def Con from 5.0176 to 5.0176
Heightened Def Con from 5.0176 ++++to 5.0176
Heightened Def Con from 5.0176 +++to 5.0176
Heightened Def Con from 5.0176 +to 5.0176
Heightened Def Con from 5.0176 to 5.0176
Heightened Def Con from 5.0176 to 5.0176
Heightened Def Con from 5.0176 +++to 5.0176
Heightened Def Con from 5.02007 ++++++++++++to 5.02008
Heightened Def Con from 5.02008 +++++++++to 5.02008
Heightened Def Con from 5.02008 +++++++++++to 5.02008
Heightened Def Con from 5.02008 ++++++++++to 5.02008
Heightened Def Con from 5.02008 +++++++++++++to 5.02008
Heightened Def Con from 5.02008 ++++++to 5.02008
Heightened Def Con from 5.02008 to 5.02008
Heightened Def Con from 5.02008 ++to 5.02008
Heightened Def Con from 5.02008 ++++++++++++to 5.02008
Heightened Def Con from 5.02008 +++++++++++to 5.02008
Heightened Def Con from 5.02008 ++++++++to 5.02008
Heightened Def Con from 5.02008 ++++++++++to 5.02008
Heightened Def Con from 5.02008 ++++++++++++to 5.02008
Heightened Def Con from 5.02008 +++++++++to 5.02008
Heightened Def Con from 5.02008 ++++++++++++++to 5.02008
Heightened Def Con from 5.02008 ++++++++++++++to 5.02008
Heightened Def Con from 5.02008 +++++++++++to 5.02008
Heightened Def Con from 5.02008 ++++++++++++++to 5.02008
Heightened Def Con from 5.02008 +++++++++++++to 5.02008
Heightened Def Con from 5.02008 ++++++++++++++to 5.02008
Heightened Def Con from 5.02008 +++++++++++++to 5.02008
Heightened Def Con from 5.02008 ++++++++++++++to 5.02008
Heightened Def Con from 5.02008 ++++++++++++++to 5.02008
Heightened Def Con from 5.02008 ++++++++++to 5.02008
Heightened Def Con from 5.02008 ++++++++++++to 5.02008
Heightened Def Con from 5.02008 ++++++++++to 5.02008
Heightened Def Con from 5.02008 +++++++++++++++to 5.02008
Heightened Def Con from 5.02008 +++++++++++++to 5.02008
Heightened Def Con from 5.02008 +++++++++++to 5.02008
Heightened Def Con from 5.02008 +++++++++++++to 5.02008
Heightened Def Con from 5.02008 ++++++++++to 5.02008
Heightened Def Con from 5.02008 +++++++++++++++to 5.02008
Heightened Def Con from 5.02008 +++++++++++++to 5.02008
Heightened Def Con from 5.02008 +++++++++++to 5.02008
Heightened Def Con from 5.02008 to 5.02008
Heightened Def Con from 5.02008 +to 5.02008
Heightened Def Con from 5.02008 +++++++++++to 5.02008
Heightened Def Con from 5.02008 ++++++++to 5.02008
Heightened Def Con from 5.02008 ++++++++++++to 5.02008
Heightened Def Con from 5.02008 +++++++++++++to 5.02008
Heightened Def Con from 5.02008 +++++++++to 5.02008
Heightened Def Con from 5.02008 +++++++++++++to 5.02008
Heightened Def Con from 5.02008 +++++++++++++to 5.02008
Heightened Def Con from 5.02008 ++++++++++++to 5.02008
Heightened Def Con from 5.02008 +++++++++++++to 5.02008
Heightened Def Con from 5.02008 ++++++++++++to 5.02008
Heightened Def Con from 5.02008 +++++++++++to 5.02008
Heightened Def Con from 5.02008 ++++++++to 5.02008
Heightened Def Con from 5.02008 ++to 5.02008
Heightened Def Con from 5.02008 +to 5.02008
Heightened Def Con from 5.02008 to 5.02008
Heightened Def Con from 5.02008 ++++to 5.02008
Heightened Def Con from 5.02008 ++++++to 5.02008
Heightened Def Con from 5.02008 +++++++++to 5.02008
Heightened Def Con from 5.02008 ++++++++++++to 5.02008
Heightened Def Con from 5.02008 ++++++++++++to 5.02008
Heightened Def Con from 5.02008 ++++++++to 5.02008
Heightened Def Con from 5.02008 ++++to 5.02008
Heightened Def Con from 5.02008 ++to 5.02008
Heightened Def Con from 5.02008 ++to 5.02008
Heightened Def Con from 5.02008 ++++to 5.02008
Heightened Def Con from 5.02008 ++++to 5.02008
Heightened Def Con from 5.02008 +++++++++++++to 5.02008
Heightened Def Con from 5.02008 +++++++++++to 5.02008
Heightened Def Con from 5.02008 +++++++++++++++to 5.02008
Heightened Def Con from 5.02008 +++++++++++++++to 5.02008
Heightened Def Con from 5.02008 ++++++++++to 5.02008
Heightened Def Con from 5.02008 ++++++++++++++to 5.02008
Heightened Def Con from 5.02008 ++++++++++++to 5.02008
Heightened Def Con from 5.02008 ++++++++++to 5.02008
Heightened Def Con from 5.02008 +++++++++++++to 5.02008
Heightened Def Con from 5.02008 ++++++++++++++to 5.02008
Heightened Def Con from 5.02008 +++++++++++++++to 5.02008
Heightened Def Con from 5.02008 +++++++++++++++to 5.02008
Heightened Def Con from 5.02008 +++++++++++++++to 5.02008
Heightened Def Con from 5.02008 +++++++++++to 5.02008
Heightened Def Con from 5.02008 ++++++++++to 5.02008
Heightened Def Con from 5.02008 to 5.02008
Heightened Def Con from 5.02008 to 5.02008
Heightened Def Con from 5.02008 to 5.02008
Heightened Def Con from 5.02009 ++++++++++++to 5.02009
Heightened Def Con from 5.02009 +++++++++++to 5.02009
Heightened Def Con from 5.02009 +++++++++to 5.02009
Heightened Def Con from 5.02009 +++++++++to 5.02009
Heightened Def Con from 5.02009 +++++++++++++to 5.02009
Heightened Def Con from 5.02009 +++to 5.02009
Heightened Def Con from 5.02009 +++to 5.02009
Heightened Def Con from 5.02009 ++++++++to 5.02009
Heightened Def Con from 5.02009 +++++++++++++to 5.02009
Heightened Def Con from 5.02009 ++++++++to 5.02009
Heightened Def Con from 5.02009 +++++++++++to 5.02009
Heightened Def Con from 5.02009 +++++++++++++++to 5.02009
Heightened Def Con from 5.02009 ++++++++++++++to 5.02009
Heightened Def Con from 5.02009 +++++++++++++to 5.02009
Heightened Def Con from 5.02009 +++++++++to 5.02009
Heightened Def Con from 5.02009 +to 5.02009
Heightened Def Con from 5.02009 ++to 5.02009
Heightened Def Con from 5.02009 to 5.02009
Heightened Def Con from 5.02009 to 5.02009
Heightened Def Con from 5.02493 ++++++++++to 5.02493
Heightened Def Con from 5.02493 +++++++++++++to 5.02493
Heightened Def Con from 5.02493 ++++++++++++++to 5.02493
Heightened Def Con from 5.02493 +++++++++++++++to 5.02493
Heightened Def Con from 5.02493 ++++++++++++++to 5.02493
Heightened Def Con from 5.02493 +++++++++++++to 5.02493
Heightened Def Con from 5.02493 ++++++++++++++to 5.02493
Heightened Def Con from 5.02493 +++++++++to 5.02493
Heightened Def Con from 5.02493 +++++++to 5.02493
Heightened Def Con from 5.02493 +to 5.02493
Heightened Def Con from 5.02493 to 5.02493
Heightened Def Con from 5.02493 ++++++++to 5.02493
Heightened Def Con from 5.02493 +++++++to 5.02493
Heightened Def Con from 5.02493 +++++++++++++to 5.02493
Heightened Def Con from 5.02493 ++++++++to 5.02493
Heightened Def Con from 5.02493 +++to 5.02493
Heightened Def Con from 5.02493 +++++++++++++to 5.02493
Heightened Def Con from 5.02493 ++++++++++++to 5.02493
Heightened Def Con from 5.02493 ++++++++++++++to 5.02493
Heightened Def Con from 5.02493 +++++++++++++to 5.02493
Heightened Def Con from 5.02493 +++++++++++to 5.02493
Heightened Def Con from 5.02493 +++++++++++++to 5.02493
Heightened Def Con from 5.02493 +++++++++++to 5.02493
Heightened Def Con from 5.02493 ++++++++++++++to 5.02493
Heightened Def Con from 5.02493 ++++++++++++to 5.02493
Heightened Def Con from 5.02493 ++++++++++++++to 5.02493
Heightened Def Con from 5.02493 +++++++++++to 5.02493
Heightened Def Con from 5.02493 +++++++++to 5.02493
Heightened Def Con from 5.02493 ++++++++++++to 5.02493
Heightened Def Con from 5.02493 ++++++++++++++to 5.02493
Heightened Def Con from 5.02493 +++++++++++++++to 5.02493
Heightened Def Con from 5.02493 ++++++++++++to 5.02493
Heightened Def Con from 5.02493 +++++++++++to 5.02493
Heightened Def Con from 5.02493 +++++++++++++to 5.02493
Heightened Def Con from 5.02493 +++++++++++to 5.02493
Heightened Def Con from 5.02493 +to 5.02493
Heightened Def Con from 5.02493 to 5.02493
Heightened Def Con from 5.02493 +to 5.02493
Heightened Def Con from 5.02493 +++++to 5.02493
Heightened Def Con from 5.02496 ++++++++++to 5.02496
Heightened Def Con from 5.02496 ++++++++to 5.02496
Heightened Def Con from 5.02496 +++++++++++to 5.02496
Heightened Def Con from 5.02496 ++++++++++++to 5.02496
Heightened Def Con from 5.02496 +to 5.02496
Heightened Def Con from 5.02496 +++++++++++++to 5.02496
Heightened Def Con from 5.02496 ++++++++++++++to 5.02496
Heightened Def Con from 5.02496 ++++++++++++++to 5.02496
Heightened Def Con from 5.02496 ++++++++++++to 5.02496
Heightened Def Con from 5.02496 ++++++++++++to 5.02496
Heightened Def Con from 5.02496 +++++++++++++to 5.02496
Heightened Def Con from 5.02496 +++++++++++to 5.02496
Heightened Def Con from 5.02496 ++++++++++to 5.02496
Heightened Def Con from 5.02496 ++++++++++++++to 5.02496
Heightened Def Con from 5.02496 ++++++++++to 5.02496
Heightened Def Con from 5.02496 to 5.02496
Heightened Def Con from 5.02496 +to 5.02496
Heightened Def Con from 5.02496 to 5.02496
Heightened Def Con from 5.02496 +++++++++to 5.02496
Heightened Def Con from 5.02496 ++++++++to 5.02496
Heightened Def Con from 5.02496 to 5.02496
Heightened Def Con from 5.02496 ++to 5.02496
Heightened Def Con from 5.02496 +to 5.02496
Heightened Def Con from 5.02496 ++to 5.02496
Heightened Def Con from 5.02496 +++++++++to 5.02496
Heightened Def Con from 5.02496 +++++++++++++to 5.02496
Heightened Def Con from 5.02496 +++++++++to 5.02496
Heightened Def Con from 5.02496 +++++++++++to 5.02496
Heightened Def Con from 5.02496 +++++++++++++to 5.02496
Heightened Def Con from 5.02496 +++++++++++to 5.02496
Heightened Def Con from 5.02496 ++++++++to 5.02496
Heightened Def Con from 5.02496 +++to 5.02496
Heightened Def Con from 5.02496 +++++++to 5.02496
Heightened Def Con from 5.02496 ++++++to 5.02496
Heightened Def Con from 5.02496 ++++++++++to 5.02496
Heightened Def Con from 5.02496 +++++++++++++to 5.02496
Heightened Def Con from 5.02496 ++++++++to 5.02496
Heightened Def Con from 5.02496 ++++++++++to 5.02496
Heightened Def Con from 5.02496 +++++++++++++to 5.02496
Heightened Def Con from 5.02496 ++++++++to 5.02496
Heightened Def Con from 5.02496 ++++++++++to 5.02496
Heightened Def Con from 5.02496 ++++++++to 5.02496
Heightened Def Con from 5.02496 ++to 5.02496
Heightened Def Con from 5.02496 +++to 5.02496
Heightened Def Con from 5.02496 ++to 5.02496
Heightened Def Con from 5.02496 ++++++++++++++to 5.02496
Heightened Def Con from 5.02496 +++++to 5.02496
Heightened Def Con from 5.02496 to 5.02496
Heightened Def Con from 5.02496 +++++to 5.02496
Heightened Def Con from 5.02496 ++to 5.02496
Heightened Def Con from 5.02496 +to 5.02496
Heightened Def Con from 5.02496 +to 5.02496
Heightened Def Con from 5.02496 to 5.02496
Heightened Def Con from 5.02496 ++++++++++++++to 5.02496
Heightened Def Con from 5.02496 +++++++++++++++to 5.02496
Heightened Def Con from 5.02496 ++++++++++to 5.02496
Heightened Def Con from 5.02496 +++++++++++++to 5.02496
Heightened Def Con from 5.02496 ++++++++++++to 5.02496
Heightened Def Con from 5.02496 +++++++++++to 5.02496
Heightened Def Con from 5.02496 ++++++++++++++to 5.02496
Heightened Def Con from 5.02496 ++++++++++++++to 5.02496
Heightened Def Con from 5.02496 +++++++++++++to 5.02496
Heightened Def Con from 5.02496 ++++++++++++++to 5.02496
Heightened Def Con from 5.02496 ++++++++++to 5.02496
Heightened Def Con from 5.02496 +++++++++++++++to 5.02496
Heightened Def Con from 5.02496 ++++++++++++to 5.02496
Heightened Def Con from 5.02496 ++++++++++++to 5.02496
Heightened Def Con from 5.02496 ++++++++++++++to 5.02496
Heightened Def Con from 5.02496 +++++++++++++to 5.02496
Heightened Def Con from 5.02496 +++++++++++to 5.02496
Heightened Def Con from 5.02496 +to 5.02496
Heightened Def Con from 5.02496 to 5.02496
Heightened Def Con from 5.02496 +to 5.02496
Heightened Def Con from 5.02496 to 5.02496
Heightened Def Con from 5.02498 ++++++++++++++to 5.02498
Heightened Def Con from 5.02498 ++++++++++to 5.02498
Heightened Def Con from 5.02498 +++++++++to 5.02498
Heightened Def Con from 5.02498 ++++++++++++to 5.02498
Heightened Def Con from 5.02498 ++++++++++++to 5.02498
Heightened Def Con from 5.02498 +++++++++to 5.02498
Heightened Def Con from 5.02498 ++++++++++to 5.02498
Heightened Def Con from 5.02498 +++++++++++to 5.02498
Heightened Def Con from 5.02498 ++++++++++++++to 5.02498
Heightened Def Con from 5.02498 +++++++++to 5.02498
Heightened Def Con from 5.02498 ++++++++++++++to 5.02498
Heightened Def Con from 5.02498 ++++++++++++++to 5.02498
Heightened Def Con from 5.02498 ++++++++++++to 5.02498
Heightened Def Con from 5.02498 ++++++++++++to 5.02498
Heightened Def Con from 5.02498 +++++++++to 5.02498
Heightened Def Con from 5.02498 +++++++++++++++to 5.02498
Heightened Def Con from 5.02498 ++++++++++to 5.02498
Heightened Def Con from 5.02498 ++++++++++++++to 5.02498
Heightened Def Con from 5.02498 ++++++++++++to 5.02498
Heightened Def Con from 5.02498 +++++++++++++++to 5.02498
Heightened Def Con from 5.02498 +++++++++++++to 5.02498
Heightened Def Con from 5.02498 ++++++++++++++to 5.02498
Heightened Def Con from 5.02498 +++++++++++++to 5.02498
Heightened Def Con from 5.02498 ++++++++++to 5.02498
Heightened Def Con from 5.02498 ++++++++++to 5.02498
Heightened Def Con from 5.02498 +++++++++to 5.02498
Heightened Def Con from 5.02499 +++++++++++to 5.02499
Heightened Def Con from 5.02499 ++++++++++to 5.02499
Heightened Def Con from 5.02499 ++++++++++++to 5.02499
Heightened Def Con from 5.02499 +++++++++to 5.02499
Heightened Def Con from 5.02499 ++++++++to 5.02499
Heightened Def Con from 5.02499 ++++++++++++to 5.02499
Heightened Def Con from 5.02499 ++++++++++to 5.02499
Heightened Def Con from 5.02499 +++++++++++++to 5.02499
Heightened Def Con from 5.02499 +++++++++++++to 5.02499
Heightened Def Con from 5.02499 ++++++++++++++to 5.02499
Heightened Def Con from 5.02499 ++++++++++++++to 5.02499
Heightened Def Con from 5.02499 +++++++++++to 5.02499
Heightened Def Con from 5.02499 +++++++++++to 5.02499
Heightened Def Con from 5.02499 +++++++++++to 5.02499
Heightened Def Con from 5.02499 ++++++++++to 5.02499
Heightened Def Con from 5.02499 +++++++++++++to 5.02499
Heightened Def Con from 5.02499 +++++++++++++to 5.02499
Heightened Def Con from 5.02499 +++++++++++++++to 5.02499
Heightened Def Con from 5.02499 ++++++++++++to 5.02499
Heightened Def Con from 5.02499 +++++++++++++to 5.02499
Heightened Def Con from 5.02499 ++++++++++to 5.02499
Heightened Def Con from 5.02499 +++++++++++to 5.02499
Heightened Def Con from 5.02499 +++++++++to 5.02499
Heightened Def Con from 5.02499 to 5.02499
Heightened Def Con from 5.02499 +to 5.02499
Heightened Def Con from 5.02499 to 5.02499
Heightened Def Con from 5.025 +++++++++++++to 5.025
Heightened Def Con from 5.025 +++++++++to 5.025
Heightened Def Con from 5.025 ++++++++++to 5.025
Heightened Def Con from 5.025 +++++++++++to 5.025
Heightened Def Con from 5.025 ++++++++++++to 5.025
Heightened Def Con from 5.025 ++++++++++++to 5.025
Heightened Def Con from 5.025 +++++++++to 5.025
Heightened Def Con from 5.025 ++++++++++to 5.025
Heightened Def Con from 5.025 ++++++++++++to 5.025
Heightened Def Con from 5.025 ++++++++++++++to 5.025
Heightened Def Con from 5.025 ++++++++++++to 5.025
Heightened Def Con from 5.025 +++++++++++to 5.025
Heightened Def Con from 5.025 +++++++++++to 5.025
Heightened Def Con from 5.025 +++++++++to 5.025
Heightened Def Con from 5.025 ++++++++++to 5.025
Heightened Def Con from 5.025 +++++++++to 5.025
Heightened Def Con from 5.025 to 5.025
Heightened Def Con from 5.025 +to 5.025
Heightened Def Con from 5.025 +++to 5.025
Heightened Def Con from 5.025 +++to 5.025
Heightened Def Con from 5.025 ++to 5.025
Heightened Def Con from 5.02501 +++++++++++to 5.02501
Heightened Def Con from 5.02501 +++++++++++++to 5.02501
Heightened Def Con from 5.02501 ++++++++++++to 5.02501
Heightened Def Con from 5.02501 +++++++to 5.02501
Heightened Def Con from 5.02501 ++to 5.02501
Heightened Def Con from 5.02501 ++to 5.02501
Heightened Def Con from 5.02501 to 5.02501
Heightened Def Con from 5.02501 to 5.02501
Heightened Def Con from 5.02501 ++to 5.02501
Heightened Def Con from 5.02501 ++to 5.02501
Heightened Def Con from 5.02501 +to 5.02501
Heightened Def Con from 5.02501 +++++++to 5.02501
Heightened Def Con from 5.02501 +++++++++++to 5.02501
Heightened Def Con from 5.02501 +++++++++to 5.02501
Heightened Def Con from 5.02501 +++++++++++++to 5.02501
Heightened Def Con from 5.02501 +++++++to 5.02501
Heightened Def Con from 5.02501 ++++++++++++++to 5.02501
Heightened Def Con from 5.02501 +++++++++++to 5.02501
Heightened Def Con from 5.02501 ++++++++++++++to 5.02501
Heightened Def Con from 5.02501 ++to 5.02501
Heightened Def Con from 5.02501 to 5.02501
Heightened Def Con from 5.02501 to 5.02501
Heightened Def Con from 5.02501 to 5.02501
Heightened Def Con from 5.02501 to 5.02501
Heightened Def Con from 5.02501 ++to 5.02501
Heightened Def Con from 5.02501 +++to 5.02501
Heightened Def Con from 5.02501 to 5.02501
Heightened Def Con from 5.02993 ++++++to 5.02993
Heightened Def Con from 5.02993 ++++++++to 5.02993
Heightened Def Con from 5.02993 +++++++++++to 5.02993
Heightened Def Con from 5.02993 +++++++++++++to 5.02993
Heightened Def Con from 5.02993 ++++++++++to 5.02993
Heightened Def Con from 5.02993 +++++++++to 5.02993
Heightened Def Con from 5.02993 ++++++++++to 5.02993
Heightened Def Con from 5.02993 +++++++++++to 5.02993
Heightened Def Con from 5.02993 ++++++++++++++to 5.02993
Heightened Def Con from 5.02993 ++++++++++++to 5.02993
Heightened Def Con from 5.02993 ++++++++++++++to 5.02993
Heightened Def Con from 5.02993 ++++++++++++to 5.02993
Heightened Def Con from 5.02993 ++++++++++to 5.02993
Heightened Def Con from 5.02993 +++++++++++to 5.02993
Heightened Def Con from 5.02993 ++++++++++++to 5.02993
Heightened Def Con from 5.02993 ++++++++++++to 5.02993
Heightened Def Con from 5.02993 +++++++++++to 5.02993
Heightened Def Con from 5.02993 +++++++++++++to 5.02993
Heightened Def Con from 5.02993 ++++++++++to 5.02993
Heightened Def Con from 5.02993 ++++++++++++to 5.02993
Heightened Def Con from 5.02993 +++++++++++++to 5.02993
Heightened Def Con from 5.02993 +++++++++++++to 5.02993
Heightened Def Con from 5.02993 +++++++++++++to 5.02993
Heightened Def Con from 5.02993 ++++++++++++++to 5.02993
Heightened Def Con from 5.02993 ++++++++++++to 5.02993
Heightened Def Con from 5.02993 ++++++++++++to 5.02993
Heightened Def Con from 5.02993 +++++++++++++to 5.02993
Heightened Def Con from 5.02993 +++++++++++++++to 5.02993
Heightened Def Con from 5.02993 +++++++++to 5.02993
Heightened Def Con from 5.02993 ++++++to 5.02993
Heightened Def Con from 5.02993 +++to 5.02993
Heightened Def Con from 5.02993 +to 5.02993
Heightened Def Con from 5.02993 +++++++++to 5.02993
Heightened Def Con from 5.02993 +++++++++++to 5.02993
Heightened Def Con from 5.02993 +++++++++++to 5.02993
Heightened Def Con from 5.02993 ++++++++++++++to 5.02993
Heightened Def Con from 5.02993 +++++++++++to 5.02993
Heightened Def Con from 5.02993 ++++++++++to 5.02993
Heightened Def Con from 5.02993 ++++++++++to 5.02993
Heightened Def Con from 5.02993 ++++++++++++++to 5.02993
Heightened Def Con from 5.02993 ++++++++to 5.02993
Heightened Def Con from 5.02993 +++to 5.02993
Heightened Def Con from 5.02993 to 5.02993
Heightened Def Con from 5.02993 ++++++to 5.02993
Heightened Def Con from 5.02993 ++++++to 5.02993
Heightened Def Con from 5.02993 ++++to 5.02993
Heightened Def Con from 5.02993 ++++++++++to 5.02993
Heightened Def Con from 5.02993 ++++++++++++to 5.02993
Heightened Def Con from 5.02993 +++++++++to 5.02993
Heightened Def Con from 5.02993 +++++++++++++to 5.02993
Heightened Def Con from 5.02993 ++++++++++to 5.02993
Heightened Def Con from 5.02993 ++++++++++++to 5.02993
Heightened Def Con from 5.02993 ++++++++to 5.02993
Heightened Def Con from 5.02993 ++++++++++++++to 5.02993
Heightened Def Con from 5.02993 ++++++++++++++to 5.02993
Heightened Def Con from 5.02993 +++++++++++to 5.02993
Heightened Def Con from 5.02993 ++++++++++++to 5.02993
Heightened Def Con from 5.02993 +++++++++++++to 5.02993
Heightened Def Con from 5.02993 +++++++++++++++to 5.02993
Heightened Def Con from 5.02993 +++++++++++++++to 5.02993
Heightened Def Con from 5.02993 ++++++++++++++to 5.02993
Heightened Def Con from 5.02993 ++++++++++++to 5.02993
Heightened Def Con from 5.02993 ++++++++++++++to 5.02993
Heightened Def Con from 5.02993 +++++++++++++to 5.02993
Heightened Def Con from 5.02993 +++++++++++++to 5.02993
Heightened Def Con from 5.02993 +++++++++++to 5.02993
Heightened Def Con from 5.02993 ++++++++++to 5.02993
Heightened Def Con from 5.02993 +++++++++++to 5.02993
Heightened Def Con from 5.02993 ++++++++++++++to 5.02993
Heightened Def Con from 5.02993 +++++++++++++to 5.02993
Heightened Def Con from 5.02993 ++++++++++to 5.02993
Heightened Def Con from 5.02993 to 5.02993
Heightened Def Con from 5.02993 ++to 5.02993
Heightened Def Con from 5.02993 ++to 5.02993
Heightened Def Con from 5.02993 +++to 5.02993
Heightened Def Con from 5.02993 to 5.02993
Heightened Def Con from 5.02993 +to 5.02993
Heightened Def Con from 5.02993 ++++++++to 5.02993
Heightened Def Con from 5.02993 +++++++++to 5.02993
Heightened Def Con from 5.02993 +++++++++++++to 5.02993
Heightened Def Con from 5.02993 +++to 5.02993
Heightened Def Con from 5.02993 +to 5.02993
Heightened Def Con from 5.02993 +++++++++to 5.02993
Heightened Def Con from 5.02993 +++++++++++to 5.02993
Heightened Def Con from 5.02993 +++++++++++to 5.02993
Heightened Def Con from 5.02993 +++++++++++++to 5.02993
Heightened Def Con from 5.02993 ++++++++++++to 5.02993
Heightened Def Con from 5.02993 +++++++++to 5.02993
Heightened Def Con from 5.02993 +++++++++++to 5.02993
Heightened Def Con from 5.02993 ++++++++to 5.02993
Heightened Def Con from 5.02993 +++++++++++to 5.02993
Heightened Def Con from 5.02993 ++++++++++++to 5.02993
Heightened Def Con from 5.02993 ++++++++++++++to 5.02993
Heightened Def Con from 5.02993 +++++++++++++++to 5.02993
Heightened Def Con from 5.02993 +++++++++++to 5.02993
Heightened Def Con from 5.02993 +++++++++++to 5.02993
Heightened Def Con from 5.02993 +++++++++++++to 5.02993
Heightened Def Con from 5.02993 +++++++++++++++to 5.02993
Heightened Def Con from 5.02993 ++++++++++++to 5.02993
Heightened Def Con from 5.02993 ++++++++++++to 5.02993
Heightened Def Con from 5.02993 ++++++++++++to 5.02993
Heightened Def Con from 5.02993 +++++++++++++to 5.02993
Heightened Def Con from 5.02993 ++++++++++++to 5.02993
Heightened Def Con from 5.02993 ++++++++++++++to 5.02993
Heightened Def Con from 5.02993 ++++++++++++to 5.02993
Heightened Def Con from 5.02993 ++++++++++to 5.02993
Heightened Def Con from 5.02993 +++++++++to 5.02993
Heightened Def Con from 5.02993 ++++to 5.02993
Heightened Def Con from 5.02993 to 5.02993
Heightened Def Con from 5.02993 to 5.02993
Heightened Def Con from 5.03258 +++++++++to 5.03258
Heightened Def Con from 5.03258 ++++++++++++to 5.03258
Heightened Def Con from 5.03258 +++++++to 5.03258
Heightened Def Con from 5.03258 +++++++to 5.03258
Heightened Def Con from 5.03258 ++++++to 5.03258
Heightened Def Con from 5.03258 ++++++++++++++to 5.03258
Heightened Def Con from 5.03258 ++++++++++to 5.03258
Heightened Def Con from 5.03258 ++++++++to 5.03258
Heightened Def Con from 5.03258 to 5.03258
Heightened Def Con from 5.03258 ++++to 5.03258
Heightened Def Con from 5.03258 ++to 5.03258
Heightened Def Con from 5.03258 +to 5.03258
Heightened Def Con from 5.03258 to 5.03258
Heightened Def Con from 5.03258 +++to 5.03258
Heightened Def Con from 5.03258 +++++++++++++to 5.03258
Heightened Def Con from 5.03258 +++++++to 5.03258
Heightened Def Con from 5.03258 ++to 5.03258
Heightened Def Con from 5.03258 +to 5.03258
Heightened Def Con from 5.03258 +to 5.03258
Heightened Def Con from 5.03258 +++to 5.03258
Heightened Def Con from 5.03258 ++++++++to 5.03258
Heightened Def Con from 5.03258 +++++++++++++to 5.03258
Heightened Def Con from 5.03258 ++++++++++++to 5.03258
Heightened Def Con from 5.03258 ++++++++++++++to 5.03258
Heightened Def Con from 5.03258 ++++++++++++to 5.03258
Heightened Def Con from 5.03258 +++++++++++to 5.03258
Heightened Def Con from 5.03258 ++++++++to 5.03258
Heightened Def Con from 5.03258 +to 5.03258
Heightened Def Con from 5.03258 +++to 5.03258
Heightened Def Con from 5.03258 ++++to 5.03258
Heightened Def Con from 5.03258 to 5.03258
Heightened Def Con from 5.03258 ++++++++++++to 5.03258
Heightened Def Con from 5.03258 +++++++++++to 5.03258
Heightened Def Con from 5.03258 ++++++++++++to 5.03258
Heightened Def Con from 5.03258 +++++++++++to 5.03258
Heightened Def Con from 5.03258 ++++++++++++to 5.03258
Heightened Def Con from 5.03258 +++++++++to 5.03258
Heightened Def Con from 5.03258 ++++++++++to 5.03258
Heightened Def Con from 5.03258 ++++++++++to 5.03258
Heightened Def Con from 5.03258 +++++++++++++to 5.03258
Heightened Def Con from 5.03258 ++++++++++to 5.03258
Heightened Def Con from 5.03258 +++++++++++++to 5.03258
Heightened Def Con from 5.03258 ++++++++++++to 5.03258
Heightened Def Con from 5.03258 ++++++++to 5.03258
Heightened Def Con from 5.03258 +++++to 5.03258
Heightened Def Con from 5.03258 +to 5.03258
Heightened Def Con from 5.03258 +++++++to 5.03258
Heightened Def Con from 5.03258 to 5.03258
Heightened Def Con from 5.03258 +++to 5.03258
Heightened Def Con from 5.03258 to 5.03258
Heightened Def Con from 5.03258 to 5.03258
Heightened Def Con from 5.03258 +to 5.03258
Heightened Def Con from 5.03258 ++to 5.03258
Heightened Def Con from 5.03258 ++to 5.03258
Heightened Def Con from 5.03258 ++to 5.03258
Heightened Def Con from 5.03258 +++++++++++to 5.03258
[...]
Heightened Def Con from 7.18255 to 7.18255
Heightened Def Con from 7.18255 to 7.18255
Heightened Def Con from 7.18255 +to 7.18255
Heightened Def Con from 7.18255 +to 7.18255
Heightened Def Con from 7.18255 +to 7.18255
Heightened Def Con from 7.18255 ++to 7.18255
Heightened Def Con from 7.18255 to 7.18255
Heightened Def Con from 7.18255 +to 7.18255
Heightened Def Con from 7.18258 ++++++to 7.18258
Heightened Def Con from 7.18258 ++++++++++++to 7.18258
Heightened Def Con from 7.18258 ++++++++++++++to 7.18258
Heightened Def Con from 7.18258 +++++++++++to 7.18258
Heightened Def Con from 7.18258 ++++++++++to 7.18258
Heightened Def Con from 7.18258 ++++++++++++++to 7.18258
Heightened Def Con from 7.18258 ++++++++to 7.18258
Heightened Def Con from 7.18258 +to 7.18258
Heightened Def Con from 7.18258 +++to 7.18258
Heightened Def Con from 7.18258 +++++to 7.18258
Heightened Def Con from 7.18258 to 7.18258
Heightened Def Con from 7.18258 +to 7.18258
Heightened Def Con from 7.18258 ++++++++++++++to 7.18258
Heightened Def Con from 7.18258 ++++++++++++to 7.18258
Heightened Def Con from 7.18258 ++++++++++++to 7.18258
Heightened Def Con from 7.18258 ++++++++++++to 7.18258
Heightened Def Con from 7.18258 ++++++++++to 7.18258
Heightened Def Con from 7.18258 ++++++++++++to 7.18258
Heightened Def Con from 7.18258 +++++++++++to 7.18258
Heightened Def Con from 7.18258 ++++++++to 7.18258
Heightened Def Con from 7.18258 +++++to 7.18258
Heightened Def Con from 7.18258 +to 7.18258
Heightened Def Con from 7.18258 ++++to 7.18258
Heightened Def Con from 7.18258 to 7.18258
Heightened Def Con from 7.18258 to 7.18258
Heightened Def Con from 7.18258 +to 7.18258
Heightened Def Con from 7.18258 ++to 7.18258
Heightened Def Con from 7.18755 ++++++++++to 7.18755
Heightened Def Con from 7.18755 ++++++++++++++to 7.18755
Heightened Def Con from 7.18755 +++++++++++++to 7.18755
Heightened Def Con from 7.18755 +++++++++++++to 7.18755
Heightened Def Con from 7.18755 +++++++++++++to 7.18755
Heightened Def Con from 7.18755 ++++++++++to 7.18755
Heightened Def Con from 7.18755 ++++++++++to 7.18755
Heightened Def Con from 7.18755 +++++++++++to 7.18755
Heightened Def Con from 7.18755 +++++++++to 7.18755
Heightened Def Con from 7.18755 ++++++++++to 7.18755
Heightened Def Con from 7.18755 +++++++++++++to 7.18755
Heightened Def Con from 7.18755 +++++++++++++to 7.18755
Heightened Def Con from 7.18755 +++++++++++to 7.18755
Heightened Def Con from 7.18755 +++++++++++to 7.18755
Heightened Def Con from 7.18755 +++++++++to 7.18755
Heightened Def Con from 7.18755 ++++++++++++to 7.18755
Heightened Def Con from 7.18755 +++++++++++++to 7.18755
Heightened Def Con from 7.18755 ++++++++++++to 7.18755
Heightened Def Con from 7.18755 ++++++++++++++to 7.18755
Heightened Def Con from 7.18755 ++++++++++++++to 7.18755
Heightened Def Con from 7.18755 ++++++++++to 7.18755
Heightened Def Con from 7.18755 +to 7.18755
Heightened Def Con from 7.18755 ++to 7.18755
Heightened Def Con from 7.18755 +++++++++to 7.18755
Heightened Def Con from 7.18755 +++++++++++++++to 7.18755
Heightened Def Con from 7.18755 ++++++++++to 7.18755
Heightened Def Con from 7.18755 +++++++++to 7.18755
Heightened Def Con from 7.18755 ++++++++++++++to 7.18755
Heightened Def Con from 7.18755 ++++++++++++to 7.18755
Heightened Def Con from 7.18755 +++++++++++to 7.18755
Heightened Def Con from 7.18755 ++++++++++++to 7.18755
Heightened Def Con from 7.18755 ++++++++++++++to 7.18755
Heightened Def Con from 7.18755 ++++++++++to 7.18755
Heightened Def Con from 7.18755 +++++++++to 7.18755
Heightened Def Con from 7.18755 ++++++++++++to 7.18755
Heightened Def Con from 7.18755 ++++++++++++to 7.18755
Heightened Def Con from 7.18755 ++++++++++++++to 7.18755
Heightened Def Con from 7.18755 ++++++++++to 7.18755
Heightened Def Con from 7.18755 +++++++++++to 7.18755
Heightened Def Con from 7.18755 ++++++++++to 7.18755
Heightened Def Con from 7.18755 ++++++++++++++to 7.18755
Heightened Def Con from 7.18755 ++++++++++to 7.18755
Heightened Def Con from 7.18755 ++++++++++++++to 7.18755
Heightened Def Con from 7.18755 +++++++++to 7.18755
Heightened Def Con from 7.18755 to 7.18755
Heightened Def Con from 7.18755 +to 7.18755
Heightened Def Con from 7.18755 +++to 7.18755
Heightened Def Con from 7.18755 to 7.18755
Heightened Def Con from 7.18755 to 7.18755
Heightened Def Con from 7.18755 +to 7.18755
Heightened Def Con from 7.18755 to 7.18755
Heightened Def Con from 7.18755 ++++to 7.18755
Heightened Def Con from 7.18755 ++to 7.18755
Heightened Def Con from 7.18755 +to 7.18755
Heightened Def Con from 7.18755 ++++to 7.18755
Heightened Def Con from 7.18755 to 7.18755
Heightened Def Con from 7.18755 +to 7.18755
Heightened Def Con from 7.18755 +++++to 7.18755
Heightened Def Con from 7.18755 to 7.18755
Heightened Def Con from 7.18755 ++to 7.18755
Heightened Def Con from 7.18755 to 7.18755
Heightened Def Con from 7.19008 ++++++++to 7.19008
Heightened Def Con from 7.19008 ++++++++++++++to 7.19008
Heightened Def Con from 7.19008 ++++++++++++to 7.19008
Heightened Def Con from 7.19008 ++++++++++++to 7.19008
Heightened Def Con from 7.19008 +++++++++++++to 7.19008
Heightened Def Con from 7.19008 ++++++++++to 7.19008
Heightened Def Con from 7.19008 ++++++++to 7.19008
Heightened Def Con from 7.19008 ++++++++++++++to 7.19008
Heightened Def Con from 7.19008 ++++++++to 7.19008
Heightened Def Con from 7.19008 +++++++++++++++to 7.19008
Heightened Def Con from 7.19008 ++++++++++to 7.19008
Heightened Def Con from 7.19008 +++++++++++++to 7.19008
Heightened Def Con from 7.19008 +++++++++++to 7.19008
Heightened Def Con from 7.19008 +++++++++++to 7.19008
Heightened Def Con from 7.19008 ++++++++++to 7.19008
Heightened Def Con from 7.19008 ++++++++++++++++to 7.19008
Heightened Def Con from 7.19008 ++++++++++++++to 7.19008
Heightened Def Con from 7.19008 +++++++++++++to 7.19008
Heightened Def Con from 7.19008 +++++++++++++to 7.19008
Heightened Def Con from 7.19008 +++++++++++++++to 7.19008
Heightened Def Con from 7.19008 ++++++++++++++to 7.19008
Heightened Def Con from 7.19008 ++++++++++++to 7.19008
Heightened Def Con from 7.19008 ++++++++++to 7.19008
Heightened Def Con from 7.19008 to 7.19008
Heightened Def Con from 7.19008 to 7.19008
Heightened Def Con from 7.19008 ++to 7.19008
Heightened Def Con from 7.19008 to 7.19008
Heightened Def Con from 7.19008 ++to 7.19008
Heightened Def Con from 7.19008 to 7.19008
Heightened Def Con from 7.19008 +++++++++++++++to 7.19008
Heightened Def Con from 7.19008 +++++++++to 7.19008
Heightened Def Con from 7.19008 +++++++++to 7.19008
Heightened Def Con from 7.19008 +++++++++++to 7.19008
Heightened Def Con from 7.19008 +++++++++to 7.19008
Heightened Def Con from 7.19008 +++++++++++++to 7.19008
Heightened Def Con from 7.19008 ++++++++++++++to 7.19008
Heightened Def Con from 7.19008 ++++++++++++++to 7.19008
Heightened Def Con from 7.19008 +++++++++to 7.19008
Heightened Def Con from 7.19008 ++++++++++++to 7.19008
Heightened Def Con from 7.19008 +++++++++++++to 7.19008
Heightened Def Con from 7.19008 ++++++++++to 7.19008
Heightened Def Con from 7.19008 ++++++++++++++to 7.19008
Heightened Def Con from 7.19008 +++++++++++++++to 7.19008
Heightened Def Con from 7.19008 ++++++++++++++to 7.19008
Heightened Def Con from 7.19008 ++++++++++++to 7.19008
Heightened Def Con from 7.19008 ++++++++++++++to 7.19008
Heightened Def Con from 7.19008 ++++++++++++++to 7.19008
Heightened Def Con from 7.19008 +++++++++++++to 7.19008
Heightened Def Con from 7.19008 ++++++++++++++to 7.19008
Heightened Def Con from 7.19008 +++++++++++++to 7.19008
Heightened Def Con from 7.19008 ++++++++++++++to 7.19008
Heightened Def Con from 7.19008 +++++++++++++to 7.19008
Heightened Def Con from 7.19008 ++++++++++to 7.19008
Heightened Def Con from 7.19008 ++to 7.19008
Heightened Def Con from 7.19008 +to 7.19008
Heightened Def Con from 7.19008 +to 7.19008
Heightened Def Con from 7.19008 to 7.19008
Heightened Def Con from 7.19008 to 7.19008
Heightened Def Con from 7.19008 +to 7.19008
Heightened Def Con from 7.19008 ++to 7.19008
Heightened Def Con from 7.19008 to 7.19008
Heightened Def Con from 7.19008 to 7.19008
Heightened Def Con from 7.19008 +to 7.19008
Heightened Def Con from 7.19505 ++++++++to 7.19505
Heightened Def Con from 7.19505 +++++++++++++to 7.19505
Heightened Def Con from 7.19505 ++++++++++++to 7.19505
Heightened Def Con from 7.19505 ++++++to 7.19505
Heightened Def Con from 7.19505 ++++to 7.19505
Heightened Def Con from 7.19505 +++++++++++to 7.19505
Heightened Def Con from 7.19505 +++++++++to 7.19505
Heightened Def Con from 7.19505 ++++++++++++to 7.19505
Heightened Def Con from 7.19505 +++++++++++to 7.19505
Heightened Def Con from 7.19505 +++++++++++to 7.19505
Heightened Def Con from 7.19505 +++++++++++++++to 7.19505
Heightened Def Con from 7.19505 +++++++++++to 7.19505
Heightened Def Con from 7.19505 +++++++++++++to 7.19505
Heightened Def Con from 7.19505 +++++++++++to 7.19505
Heightened Def Con from 7.19505 +++++++++++++to 7.19505
Heightened Def Con from 7.19505 ++++++++++++++to 7.19505
Heightened Def Con from 7.19505 +++++++++to 7.19505
Heightened Def Con from 7.19505 +++++++++++to 7.19505
Heightened Def Con from 7.19505 ++++++++++to 7.19505
Heightened Def Con from 7.19505 ++++++++++++++to 7.19505
Heightened Def Con from 7.19505 ++++++++++to 7.19505
Heightened Def Con from 7.19505 +++++++++++++to 7.19505
Heightened Def Con from 7.19505 +++++++++++to 7.19505
Heightened Def Con from 7.19505 +++++++++to 7.19505
Heightened Def Con from 7.19505 ++++++to 7.19505
Heightened Def Con from 7.19505 to 7.19505
Heightened Def Con from 7.19505 +to 7.19505
Heightened Def Con from 7.19505 +to 7.19505
Heightened Def Con from 7.19505 ++to 7.19505
Heightened Def Con from 7.19505 ++to 7.19505
Heightened Def Con from 7.19505 +++++to 7.19505
Heightened Def Con from 7.19505 to 7.19505
Heightened Def Con from 7.19505 +to 7.19505
Heightened Def Con from 7.19505 to 7.19505
Heightened Def Con from 7.19505 +++++++++++to 7.19505
Heightened Def Con from 7.19505 ++++++++++to 7.19505
Heightened Def Con from 7.19505 +++++++++++++to 7.19505
Heightened Def Con from 7.19505 +++++++++++to 7.19505
Heightened Def Con from 7.19505 ++++++++++to 7.19505
Heightened Def Con from 7.19505 ++++++++++++to 7.19505
Heightened Def Con from 7.19505 +++++++++to 7.19505
Heightened Def Con from 7.19505 +++++++++++to 7.19505
Heightened Def Con from 7.19505 +++++++++++to 7.19505
Heightened Def Con from 7.19505 +++++++++++++to 7.19505
Heightened Def Con from 7.19505 ++++++++to 7.19505
Heightened Def Con from 7.19505 to 7.19505
Heightened Def Con from 7.19505 +++to 7.19505
Heightened Def Con from 7.19505 to 7.19505
Heightened Def Con from 7.19505 ++to 7.19505
Heightened Def Con from 7.19505 to 7.19505
Heightened Def Con from 7.19505 +++to 7.19505
Heightened Def Con from 7.19505 ++++++++++++++to 7.19505
Heightened Def Con from 7.19505 ++++++++++to 7.19505
Heightened Def Con from 7.19505 ++++++++++++to 7.19505
Heightened Def Con from 7.19505 +++++++++++to 7.19505
Heightened Def Con from 7.19505 ++++++++++to 7.19505
Heightened Def Con from 7.19505 +++++++++++to 7.19505
Heightened Def Con from 7.19505 +++++++++to 7.19505
Heightened Def Con from 7.19505 ++++++++to 7.19505
Heightened Def Con from 7.19505 +to 7.19505
Heightened Def Con from 7.19505 +++to 7.19505
Heightened Def Con from 7.19505 to 7.19505
Heightened Def Con from 7.19505 +to 7.19505
Heightened Def Con from 7.19505 to 7.19505
Heightened Def Con from 7.19505 +to 7.19505
Heightened Def Con from 7.19505 to 7.19505
Heightened Def Con from 7.19505 +++++to 7.19505
Heightened Def Con from 7.19505 +++to 7.19505
Heightened Def Con from 7.19505 +to 7.19505
Heightened Def Con from 7.19505 +to 7.19505
Heightened Def Con from 7.19505 +++to 7.19505
Heightened Def Con from 7.19505 +to 7.19505
Heightened Def Con from 7.19505 +++to 7.19505
Heightened Def Con from 7.20005 ++++++++++to 7.20005
Heightened Def Con from 7.20005 ++++++++++++to 7.20005
Heightened Def Con from 7.20005 +++++++++to 7.20005
Heightened Def Con from 7.20005 +++++++++to 7.20005
Heightened Def Con from 7.20005 +++++++++++++to 7.20005
Heightened Def Con from 7.20005 ++++to 7.20005
Heightened Def Con from 7.20005 +++++to 7.20005
Heightened Def Con from 7.20005 +++to 7.20005
Heightened Def Con from 7.20005 ++++++++++++to 7.20005
Heightened Def Con from 7.20005 ++++++to 7.20005
Heightened Def Con from 7.20005 +++++++++to 7.20005
Heightened Def Con from 7.20005 +++++++++++++to 7.20005
Heightened Def Con from 7.20005 ++++++++++to 7.20005
Heightened Def Con from 7.20005 ++++++++++to 7.20005
Heightened Def Con from 7.20005 +++++++++to 7.20005
Heightened Def Con from 7.20005 ++++++++++++++to 7.20005
Heightened Def Con from 7.20005 +++++++++++++to 7.20005
Heightened Def Con from 7.20005 ++++++++++++to 7.20005
Heightened Def Con from 7.20005 +++++++++++to 7.20005
Heightened Def Con from 7.20005 ++++++++to 7.20005
Heightened Def Con from 7.20005 ++++++to 7.20005
Heightened Def Con from 7.20505 +++++++++++++to 7.20505
Heightened Def Con from 7.20505 ++++++++++to 7.20505
Heightened Def Con from 7.20505 +++++++++to 7.20505
Heightened Def Con from 7.20505 +++++++++++++to 7.20505
Heightened Def Con from 7.20505 ++++++++++++to 7.20505
Heightened Def Con from 7.20505 ++++++++to 7.20505
Heightened Def Con from 7.20505 +++++++++to 7.20505
Heightened Def Con from 7.20505 ++++++++++++++to 7.20505
Heightened Def Con from 7.20505 to 7.20505
Heightened Def Con from 7.20505 to 7.20505
Heightened Def Con from 7.20505 +to 7.20505
Heightened Def Con from 7.20505 to 7.20505
Heightened Def Con from 7.20505 ++++++++++to 7.20505
Heightened Def Con from 7.20505 ++++++++to 7.20505
Heightened Def Con from 7.20505 ++++++++++++to 7.20505
Heightened Def Con from 7.20505 ++++++++to 7.20505
Heightened Def Con from 7.20505 +++++++++to 7.20505
Heightened Def Con from 7.20505 +++++++++++++to 7.20505
Heightened Def Con from 7.20505 ++++++to 7.20505
Heightened Def Con from 7.20505 to 7.20505
Heightened Def Con from 7.20505 +to 7.20505
Heightened Def Con from 7.20505 +to 7.20505
Heightened Def Con from 7.20505 +++++++++++to 7.20505
Heightened Def Con from 7.20505 +++++++++++to 7.20505
Heightened Def Con from 7.20505 +++++++to 7.20505
Heightened Def Con from 7.20505 ++++++++++++++to 7.20505
Heightened Def Con from 7.20505 ++++++++++++++to 7.20505
Heightened Def Con from 7.20505 ++++++++++++++to 7.20505
Heightened Def Con from 7.20505 ++++++++++to 7.20505
Heightened Def Con from 7.20505 +++to 7.20505
Heightened Def Con from 7.20505 to 7.20505
Heightened Def Con from 7.20505 to 7.20505
Heightened Def Con from 7.20506 ++++++++++to 7.20506
Heightened Def Con from 7.20506 ++++++++++to 7.20506
Heightened Def Con from 7.20506 +++++++to 7.20506
Heightened Def Con from 7.20506 ++++++++++++to 7.20506
Heightened Def Con from 7.20506 ++++++++++to 7.20506
Heightened Def Con from 7.20506 ++++++++++++to 7.20506
Heightened Def Con from 7.20506 +++++++++++to 7.20506
Heightened Def Con from 7.20506 ++++++++++++++to 7.20506
Heightened Def Con from 7.20506 ++++++++to 7.20506
Heightened Def Con from 7.20506 ++++++++++++++++to 7.20506
Heightened Def Con from 7.20506 ++++++++++to 7.20506
Heightened Def Con from 7.20506 ++++++++++++++to 7.20506
Heightened Def Con from 7.20506 +++++++++++to 7.20506
Heightened Def Con from 7.20506 ++++++++++++++to 7.20506
Heightened Def Con from 7.20506 ++++++++++++to 7.20506
Heightened Def Con from 7.20506 +++++++++++to 7.20506
Heightened Def Con from 7.20506 ++++++++++to 7.20506
Heightened Def Con from 7.20506 to 7.20506
Heightened Def Con from 7.20506 +++to 7.20506
Heightened Def Con from 7.20506 to 7.20506
Heightened Def Con from 7.20506 ++to 7.20506
Heightened Def Con from 7.20506 to 7.20506
Heightened Def Con from 7.20506 +++++++to 7.20506
Heightened Def Con from 7.20506 ++++to 7.20506
Heightened Def Con from 7.20506 ++to 7.20506
Heightened Def Con from 7.20506 to 7.20506
Heightened Def Con from 7.20993 +++++++++++++++to 7.20993
Heightened Def Con from 7.20993 +++++++++++++to 7.20993
Heightened Def Con from 7.20993 +++++++++++++to 7.20993
Heightened Def Con from 7.20993 +++++++++++++to 7.20993
Heightened Def Con from 7.20993 +++++++++++to 7.20993
Heightened Def Con from 7.20993 +++++++++++to 7.20993
Heightened Def Con from 7.20993 +++++++++++to 7.20993
Heightened Def Con from 7.20993 ++++++++++++to 7.20993
Heightened Def Con from 7.20993 ++++++++++to 7.20993
Heightened Def Con from 7.20993 ++++++++++to 7.20993
Heightened Def Con from 7.20993 +++++++++++++++to 7.20993
Heightened Def Con from 7.20993 +++++++++++++to 7.20993
Heightened Def Con from 7.20993 +++++++++++++++to 7.20993
Heightened Def Con from 7.20993 +++++++++++++to 7.20993
Heightened Def Con from 7.20993 ++++++++++++++to 7.20993
Heightened Def Con from 7.20993 ++++++++++++++to 7.20993
Heightened Def Con from 7.20993 +++++++++++++to 7.20993
Heightened Def Con from 7.20993 ++++++++++to 7.20993
Heightened Def Con from 7.20993 +++++++++++to 7.20993
Heightened Def Con from 7.20993 ++++++++++++to 7.20993
Heightened Def Con from 7.20993 ++++++++++to 7.20993
Heightened Def Con from 7.20993 +++++++++++to 7.20993
Heightened Def Con from 7.20993 +++++++++++to 7.20993
Heightened Def Con from 7.20993 ++++++++++to 7.20993
Heightened Def Con from 7.20993 +++++++++++++++to 7.20993
Heightened Def Con from 7.20993 ++++++++++to 7.20993
Heightened Def Con from 7.20993 +++++++++++++to 7.20993
Heightened Def Con from 7.20993 +++++++++++to 7.20993
Heightened Def Con from 7.20993 to 7.20993
Heightened Def Con from 7.20993 +to 7.20993
Heightened Def Con from 7.20993 +to 7.20993
Heightened Def Con from 7.20993 +to 7.20993
Heightened Def Con from 7.21505 ++++++++++++++to 7.21505
Heightened Def Con from 7.21505 ++++++++++to 7.21505
Heightened Def Con from 7.21505 ++++++++++++++to 7.21505
Heightened Def Con from 7.21505 ++++++to 7.21505
Heightened Def Con from 7.21505 +++to 7.21505
Heightened Def Con from 7.21505 ++to 7.21505
Heightened Def Con from 7.21505 to 7.21505
Heightened Def Con from 7.21505 ++++++to 7.21505
Heightened Def Con from 7.21505 to 7.21505
Heightened Def Con from 7.21505 to 7.21505
Heightened Def Con from 7.21505 to 7.21505
Heightened Def Con from 7.21505 ++to 7.21505
Heightened Def Con from 7.21505 to 7.21505
Heightened Def Con from 7.21505 ++to 7.21505
Heightened Def Con from 7.21505 to 7.21505
Heightened Def Con from 7.21505 +to 7.21505
Heightened Def Con from 7.21505 +to 7.21505
Heightened Def Con from 7.21505 +to 7.21505
Heightened Def Con from 7.21505 ++++++++++++to 7.21505
Heightened Def Con from 7.21505 +++++++++++++++to 7.21505
Heightened Def Con from 7.21505 ++++++++++++++to 7.21505
Heightened Def Con from 7.21505 +++++++++++++to 7.21505
Heightened Def Con from 7.21505 ++++++++++to 7.21505
Heightened Def Con from 7.21505 +++++to 7.21505
Heightened Def Con from 7.21505 +to 7.21505
Heightened Def Con from 7.21508 +++++++++++++to 7.21508
Heightened Def Con from 7.21508 ++++++++++to 7.21508
Heightened Def Con from 7.21508 ++++++++to 7.21508
Heightened Def Con from 7.21508 ++++++++++++to 7.21508
Heightened Def Con from 7.21508 ++++++++++++to 7.21508
Heightened Def Con from 7.21508 +++++++++to 7.21508
Heightened Def Con from 7.21508 +++++++++++++to 7.21508
Heightened Def Con from 7.21508 ++++++++++++to 7.21508
Heightened Def Con from 7.21508 ++++++++++++to 7.21508
Heightened Def Con from 7.21508 +++++++++++to 7.21508
Heightened Def Con from 7.21508 ++++++++to 7.21508
Heightened Def Con from 7.21508 +++++++++++to 7.21508
Heightened Def Con from 7.21508 +++++++++to 7.21508
Heightened Def Con from 7.21508 +++++++++++++to 7.21508
Heightened Def Con from 7.21508 +++++++++++++to 7.21508
Heightened Def Con from 7.21508 +++++to 7.21508

Date: Mon Mar 28 15:23:55 2022
Total elapsed time: 127.848 seconds.

tnom = 27
temp = 27
method = modified trap
totiter = 20528707
traniter = 20528232
tranpoints = 1924605
accept = 340634
rejected = 1845277
matrix size = 62
fillins = 83
solver = Normal
Matrix Compiler1: 9.04 KB object code size  2.9/1.6/[0.8]
Matrix Compiler2: 6.09 KB object code size  1.2/1.9/[0.9]

